FileNotFoundError: [Errno 2] No such file or directory: 'configs/topologies/vn_maps/cmesh_x_noci_naive_hops.vn'

At:
  /home/yara/mithuna2/green456/netsmith_autotop/auto_top_gem5/configs/topologies/FS_NoCI_EscapeVirtualNetworks.py(472): ingest_flat_map
  /home/yara/mithuna2/green456/netsmith_autotop/auto_top_gem5/configs/topologies/FS_NoCI_EscapeVirtualNetworks.py(108): makeTopology
  /home/yara/mithuna2/green456/netsmith_autotop/auto_top_gem5/configs/ruby/Ruby.py(220): create_system
  configs/auto_top/auto_top_fs.py(173): build_test_system
  configs/auto_top/auto_top_fs.py(443): <module>
  build/X86/python/m5/main.py(434): main
gem5 Simulator System.  https://www.gem5.org
gem5 is copyrighted software; use the --copyright option for details.

gem5 version 22.0.0.2
gem5 compiled Mar 20 2023 15:13:00
gem5 started Mar 20 2023 15:53:24
gem5 executing on mnemosyne28.ecn.purdue.edu, pid 6648
command line: ./build/X86/gem5.fast -d ./parsec_results/parsec_noci_largemem_18GHz_500kB/100m/blackscholes/cmesh_x_noci/ configs/auto_top/auto_top_fs.py -I 100000000 --benchmark_parsec blackscholes -r 1 --checkpoint-dir ./parsec_checkpoints/largemem/blackscholes --router_map_file configs/topologies/paper_solutions/cmesh_x_noci.map --flat_vn_map_file configs/topologies/vn_maps/cmesh_x_noci_naive_hops.vn --flat_nr_map_file configs/topologies/nr_list/cmesh_x_noci_naive.nrl --topology FS_NoCI_EscapeVirtualNetworks --noi_routers 20 --noc_clk 1.8GHz --sys-clock 1.8GHz --ruby-clock 1.8GHz --noi_clk 3.6GHz --num-cpus 64 --mem_or_coh mem --num-dirs 16 --num-l2caches 64 --l2_size 500kB --num_chiplets 4 --mem-size 32GB --caches --ruby --network garnet --kernel parsec_disk_image/vmlinux-4.4.186 --disk-image parsec_disk_image/x86-parsec --cpu-type X86O3CPU --restore-with-cpu X86O3CPU --routing-algorithm 2 --use_escape_vns --vcs-per-vnet 10 --evn_deadlock_partition 1 --evn_n_deadlock_free 1 --evn_min_n_deadlock_free 9

info: Standard input is not a terminal, disabling listeners.
l1_caches(64)=[<m5.objects.L1Cache_Controller.L1Cache_Controller object at 0x7f4385a385c0>, <m5.objects.L1Cache_Controller.L1Cache_Controller object at 0x7f4385a42630>, <m5.objects.L1Cache_Controller.L1Cache_Controller object at 0x7f4385a4a630>, <m5.objects.L1Cache_Controller.L1Cache_Controller object at 0x7f4385a55630>, <m5.objects.L1Cache_Controller.L1Cache_Controller object at 0x7f4385a5d630>, <m5.objects.L1Cache_Controller.L1Cache_Controller object at 0x7f43859e6630>, <m5.objects.L1Cache_Controller.L1Cache_Controller object at 0x7f43859ef630>, <m5.objects.L1Cache_Controller.L1Cache_Controller object at 0x7f43859f9630>, <m5.objects.L1Cache_Controller.L1Cache_Controller object at 0x7f4385a02630>, <m5.objects.L1Cache_Controller.L1Cache_Controller object at 0x7f4385a0a630>, <m5.objects.L1Cache_Controller.L1Cache_Controller object at 0x7f4385a14630>, <m5.objects.L1Cache_Controller.L1Cache_Controller object at 0x7f4385a1c630>, <m5.objects.L1Cache_Controller.L1Cache_Controller object at 0x7f43859a6630>, <m5.objects.L1Cache_Controller.L1Cache_Controller object at 0x7f43859ae630>, <m5.objects.L1Cache_Controller.L1Cache_Controller object at 0x7f43859b8630>, <m5.objects.L1Cache_Controller.L1Cache_Controller object at 0x7f43859c1630>, <m5.objects.L1Cache_Controller.L1Cache_Controller object at 0x7f43859ca630>, <m5.objects.L1Cache_Controller.L1Cache_Controller object at 0x7f43859d3630>, <m5.objects.L1Cache_Controller.L1Cache_Controller object at 0x7f43859db630>, <m5.objects.L1Cache_Controller.L1Cache_Controller object at 0x7f4385965630>, <m5.objects.L1Cache_Controller.L1Cache_Controller object at 0x7f438596d630>, <m5.objects.L1Cache_Controller.L1Cache_Controller object at 0x7f4385978630>, <m5.objects.L1Cache_Controller.L1Cache_Controller object at 0x7f4385980630>, <m5.objects.L1Cache_Controller.L1Cache_Controller object at 0x7f438598b630>, <m5.objects.L1Cache_Controller.L1Cache_Controller object at 0x7f4385993630>, <m5.objects.L1Cache_Controller.L1Cache_Controller object at 0x7f438599d630>, <m5.objects.L1Cache_Controller.L1Cache_Controller object at 0x7f4385925630>, <m5.objects.L1Cache_Controller.L1Cache_Controller object at 0x7f438592f630>, <m5.objects.L1Cache_Controller.L1Cache_Controller object at 0x7f4385938630>, <m5.objects.L1Cache_Controller.L1Cache_Controller object at 0x7f4385940630>, <m5.objects.L1Cache_Controller.L1Cache_Controller object at 0x7f438594a630>, <m5.objects.L1Cache_Controller.L1Cache_Controller object at 0x7f4385952630>, <m5.objects.L1Cache_Controller.L1Cache_Controller object at 0x7f438595c630>, <m5.objects.L1Cache_Controller.L1Cache_Controller object at 0x7f43858e4630>, <m5.objects.L1Cache_Controller.L1Cache_Controller object at 0x7f43858ed630>, <m5.objects.L1Cache_Controller.L1Cache_Controller object at 0x7f43858f7630>, <m5.objects.L1Cache_Controller.L1Cache_Controller object at 0x7f4385900630>, <m5.objects.L1Cache_Controller.L1Cache_Controller object at 0x7f4385909630>, <m5.objects.L1Cache_Controller.L1Cache_Controller object at 0x7f4385912630>, <m5.objects.L1Cache_Controller.L1Cache_Controller object at 0x7f438591c630>, <m5.objects.L1Cache_Controller.L1Cache_Controller object at 0x7f43858a4630>, <m5.objects.L1Cache_Controller.L1Cache_Controller object at 0x7f43858ae630>, <m5.objects.L1Cache_Controller.L1Cache_Controller object at 0x7f43858b7630>, <m5.objects.L1Cache_Controller.L1Cache_Controller object at 0x7f43858c0630>, <m5.objects.L1Cache_Controller.L1Cache_Controller object at 0x7f43858c9630>, <m5.objects.L1Cache_Controller.L1Cache_Controller object at 0x7f43858d2630>, <m5.objects.L1Cache_Controller.L1Cache_Controller object at 0x7f43858db630>, <m5.objects.L1Cache_Controller.L1Cache_Controller object at 0x7f4385864630>, <m5.objects.L1Cache_Controller.L1Cache_Controller object at 0x7f438586d630>, <m5.objects.L1Cache_Controller.L1Cache_Controller object at 0x7f4385877630>, <m5.objects.L1Cache_Controller.L1Cache_Controller object at 0x7f4385880630>, <m5.objects.L1Cache_Controller.L1Cache_Controller object at 0x7f4385889630>, <m5.objects.L1Cache_Controller.L1Cache_Controller object at 0x7f4385892630>, <m5.objects.L1Cache_Controller.L1Cache_Controller object at 0x7f438589b630>, <m5.objects.L1Cache_Controller.L1Cache_Controller object at 0x7f4385824630>, <m5.objects.L1Cache_Controller.L1Cache_Controller object at 0x7f438582d630>, <m5.objects.L1Cache_Controller.L1Cache_Controller object at 0x7f4385836630>, <m5.objects.L1Cache_Controller.L1Cache_Controller object at 0x7f438583f630>, <m5.objects.L1Cache_Controller.L1Cache_Controller object at 0x7f4385848630>, <m5.objects.L1Cache_Controller.L1Cache_Controller object at 0x7f4385850630>, <m5.objects.L1Cache_Controller.L1Cache_Controller object at 0x7f438585a630>, <m5.objects.L1Cache_Controller.L1Cache_Controller object at 0x7f4385862630>, <m5.objects.L1Cache_Controller.L1Cache_Controller object at 0x7f43857eb630>, <m5.objects.L1Cache_Controller.L1Cache_Controller object at 0x7f43857f6630>]
l2_caches(64)=[<m5.objects.L2Cache_Controller.L2Cache_Controller object at 0x7f43857ff320>, <m5.objects.L2Cache_Controller.L2Cache_Controller object at 0x7f43857ffd68>, <m5.objects.L2Cache_Controller.L2Cache_Controller object at 0x7f43858087f0>, <m5.objects.L2Cache_Controller.L2Cache_Controller object at 0x7f4385811278>, <m5.objects.L2Cache_Controller.L2Cache_Controller object at 0x7f4385811cc0>, <m5.objects.L2Cache_Controller.L2Cache_Controller object at 0x7f438581a748>, <m5.objects.L2Cache_Controller.L2Cache_Controller object at 0x7f43858231d0>, <m5.objects.L2Cache_Controller.L2Cache_Controller object at 0x7f4385823c18>, <m5.objects.L2Cache_Controller.L2Cache_Controller object at 0x7f43857ab6a0>, <m5.objects.L2Cache_Controller.L2Cache_Controller object at 0x7f43857b5128>, <m5.objects.L2Cache_Controller.L2Cache_Controller object at 0x7f43857b5b70>, <m5.objects.L2Cache_Controller.L2Cache_Controller object at 0x7f43857be5f8>, <m5.objects.L2Cache_Controller.L2Cache_Controller object at 0x7f43857c5080>, <m5.objects.L2Cache_Controller.L2Cache_Controller object at 0x7f43857c5ac8>, <m5.objects.L2Cache_Controller.L2Cache_Controller object at 0x7f43857ce550>, <m5.objects.L2Cache_Controller.L2Cache_Controller object at 0x7f43857cef98>, <m5.objects.L2Cache_Controller.L2Cache_Controller object at 0x7f43857d9a20>, <m5.objects.L2Cache_Controller.L2Cache_Controller object at 0x7f43857e14a8>, <m5.objects.L2Cache_Controller.L2Cache_Controller object at 0x7f43857e1ef0>, <m5.objects.L2Cache_Controller.L2Cache_Controller object at 0x7f4385769978>, <m5.objects.L2Cache_Controller.L2Cache_Controller object at 0x7f4385772400>, <m5.objects.L2Cache_Controller.L2Cache_Controller object at 0x7f4385772e48>, <m5.objects.L2Cache_Controller.L2Cache_Controller object at 0x7f438577d8d0>, <m5.objects.L2Cache_Controller.L2Cache_Controller object at 0x7f4385785358>, <m5.objects.L2Cache_Controller.L2Cache_Controller object at 0x7f4385785da0>, <m5.objects.L2Cache_Controller.L2Cache_Controller object at 0x7f438578c828>, <m5.objects.L2Cache_Controller.L2Cache_Controller object at 0x7f43857972b0>, <m5.objects.L2Cache_Controller.L2Cache_Controller object at 0x7f4385797cf8>, <m5.objects.L2Cache_Controller.L2Cache_Controller object at 0x7f43857a0780>, <m5.objects.L2Cache_Controller.L2Cache_Controller object at 0x7f4385729208>, <m5.objects.L2Cache_Controller.L2Cache_Controller object at 0x7f4385729c50>, <m5.objects.L2Cache_Controller.L2Cache_Controller object at 0x7f43857316d8>, <m5.objects.L2Cache_Controller.L2Cache_Controller object at 0x7f438573b160>, <m5.objects.L2Cache_Controller.L2Cache_Controller object at 0x7f438573bba8>, <m5.objects.L2Cache_Controller.L2Cache_Controller object at 0x7f4385744630>, <m5.objects.L2Cache_Controller.L2Cache_Controller object at 0x7f438574d0b8>, <m5.objects.L2Cache_Controller.L2Cache_Controller object at 0x7f438574db00>, <m5.objects.L2Cache_Controller.L2Cache_Controller object at 0x7f4385756588>, <m5.objects.L2Cache_Controller.L2Cache_Controller object at 0x7f4385756fd0>, <m5.objects.L2Cache_Controller.L2Cache_Controller object at 0x7f4385761a58>, <m5.objects.L2Cache_Controller.L2Cache_Controller object at 0x7f43856e84e0>, <m5.objects.L2Cache_Controller.L2Cache_Controller object at 0x7f43856e8f28>, <m5.objects.L2Cache_Controller.L2Cache_Controller object at 0x7f43856f29b0>, <m5.objects.L2Cache_Controller.L2Cache_Controller object at 0x7f43856fb438>, <m5.objects.L2Cache_Controller.L2Cache_Controller object at 0x7f43856fbe80>, <m5.objects.L2Cache_Controller.L2Cache_Controller object at 0x7f4385702908>, <m5.objects.L2Cache_Controller.L2Cache_Controller object at 0x7f438570c390>, <m5.objects.L2Cache_Controller.L2Cache_Controller object at 0x7f438570cdd8>, <m5.objects.L2Cache_Controller.L2Cache_Controller object at 0x7f4385716860>, <m5.objects.L2Cache_Controller.L2Cache_Controller object at 0x7f438571d2e8>, <m5.objects.L2Cache_Controller.L2Cache_Controller object at 0x7f438571dd30>, <m5.objects.L2Cache_Controller.L2Cache_Controller object at 0x7f43856a67b8>, <m5.objects.L2Cache_Controller.L2Cache_Controller object at 0x7f43856b0240>, <m5.objects.L2Cache_Controller.L2Cache_Controller object at 0x7f43856b0c88>, <m5.objects.L2Cache_Controller.L2Cache_Controller object at 0x7f43856b9710>, <m5.objects.L2Cache_Controller.L2Cache_Controller object at 0x7f43856c3198>, <m5.objects.L2Cache_Controller.L2Cache_Controller object at 0x7f43856c3be0>, <m5.objects.L2Cache_Controller.L2Cache_Controller object at 0x7f43856ca668>, <m5.objects.L2Cache_Controller.L2Cache_Controller object at 0x7f43856cafd0>, <m5.objects.L2Cache_Controller.L2Cache_Controller object at 0x7f4386782ac8>, <m5.objects.L2Cache_Controller.L2Cache_Controller object at 0x7f43856da550>, <m5.objects.L2Cache_Controller.L2Cache_Controller object at 0x7f43856daf98>, <m5.objects.L2Cache_Controller.L2Cache_Controller object at 0x7f4385664a20>, <m5.objects.L2Cache_Controller.L2Cache_Controller object at 0x7f438566d4a8>]
dirs(16)=[<m5.objects.Directory_Controller.Directory_Controller object at 0x7f438566ddd8>, <m5.objects.Directory_Controller.Directory_Controller object at 0x7f4385675048>, <m5.objects.Directory_Controller.Directory_Controller object at 0x7f4385675278>, <m5.objects.Directory_Controller.Directory_Controller object at 0x7f43856754a8>, <m5.objects.Directory_Controller.Directory_Controller object at 0x7f43856756d8>, <m5.objects.Directory_Controller.Directory_Controller object at 0x7f4385675908>, <m5.objects.Directory_Controller.Directory_Controller object at 0x7f4385675b38>, <m5.objects.Directory_Controller.Directory_Controller object at 0x7f4385675d68>, <m5.objects.Directory_Controller.Directory_Controller object at 0x7f4385675f98>, <m5.objects.Directory_Controller.Directory_Controller object at 0x7f4385681208>, <m5.objects.Directory_Controller.Directory_Controller object at 0x7f4385681438>, <m5.objects.Directory_Controller.Directory_Controller object at 0x7f4385681668>, <m5.objects.Directory_Controller.Directory_Controller object at 0x7f4385681898>, <m5.objects.Directory_Controller.Directory_Controller object at 0x7f4385681ac8>, <m5.objects.Directory_Controller.Directory_Controller object at 0x7f4385681cf8>, <m5.objects.Directory_Controller.Directory_Controller object at 0x7f4385681f28>]
dmas(2)=[<m5.objects.DMA_Controller.DMA_Controller object at 0x7f4385633e48>, <m5.objects.DMA_Controller.DMA_Controller object at 0x7f438563d4a8>]
others(0)=[]
ingesting configs/topologies/nr_list/cmesh_x_noci_naive.nrl
ingesting configs/topologies/vn_maps/cmesh_x_noci_naive_hops.vn
warn: Physical memory size specified is 32GB which is greater than 3GB.  Twice the number of memory controllers would be created.
