FileNotFoundError: [Errno 2] No such file or directory: 'configs/topologies/vn_maps/cmesh_x_noci_naive_hops.vn'

At:
  /home/yara/mithuna2/green456/netsmith_autotop/auto_top_gem5/configs/topologies/FS_NoCI_EscapeVirtualNetworks.py(472): ingest_flat_map
  /home/yara/mithuna2/green456/netsmith_autotop/auto_top_gem5/configs/topologies/FS_NoCI_EscapeVirtualNetworks.py(108): makeTopology
  /home/yara/mithuna2/green456/netsmith_autotop/auto_top_gem5/configs/ruby/Ruby.py(220): create_system
  configs/auto_top/auto_top_fs.py(173): build_test_system
  configs/auto_top/auto_top_fs.py(443): <module>
  build/X86/python/m5/main.py(434): main
gem5 Simulator System.  https://www.gem5.org
gem5 is copyrighted software; use the --copyright option for details.

gem5 version 22.0.0.2
gem5 compiled Mar 20 2023 15:13:00
gem5 started Mar 20 2023 15:53:25
gem5 executing on mnemosyne13.ecn.purdue.edu, pid 5829
command line: ./build/X86/gem5.fast -d ./parsec_results/parsec_noci_largemem_18GHz_500kB/100m/bodytrack/cmesh_x_noci/ configs/auto_top/auto_top_fs.py -I 100000000 --benchmark_parsec bodytrack -r 1 --checkpoint-dir ./parsec_checkpoints/largemem/bodytrack --router_map_file configs/topologies/paper_solutions/cmesh_x_noci.map --flat_vn_map_file configs/topologies/vn_maps/cmesh_x_noci_naive_hops.vn --flat_nr_map_file configs/topologies/nr_list/cmesh_x_noci_naive.nrl --topology FS_NoCI_EscapeVirtualNetworks --noi_routers 20 --noc_clk 1.8GHz --sys-clock 1.8GHz --ruby-clock 1.8GHz --noi_clk 3.6GHz --num-cpus 64 --mem_or_coh mem --num-dirs 16 --num-l2caches 64 --l2_size 500kB --num_chiplets 4 --mem-size 32GB --caches --ruby --network garnet --kernel parsec_disk_image/vmlinux-5.4.49 --disk-image parsec_disk_image/x86-parsec --cpu-type X86O3CPU --restore-with-cpu X86O3CPU --routing-algorithm 2 --use_escape_vns --vcs-per-vnet 10 --evn_deadlock_partition 1 --evn_n_deadlock_free 1 --evn_min_n_deadlock_free 9

info: Standard input is not a terminal, disabling listeners.
l1_caches(64)=[<m5.objects.L1Cache_Controller.L1Cache_Controller object at 0x7fa5d6c95668>, <m5.objects.L1Cache_Controller.L1Cache_Controller object at 0x7fa5d6c9e6d8>, <m5.objects.L1Cache_Controller.L1Cache_Controller object at 0x7fa5d6ca66d8>, <m5.objects.L1Cache_Controller.L1Cache_Controller object at 0x7fa5d6cb16d8>, <m5.objects.L1Cache_Controller.L1Cache_Controller object at 0x7fa5d6cb96d8>, <m5.objects.L1Cache_Controller.L1Cache_Controller object at 0x7fa5d6c436d8>, <m5.objects.L1Cache_Controller.L1Cache_Controller object at 0x7fa5d6c4b6d8>, <m5.objects.L1Cache_Controller.L1Cache_Controller object at 0x7fa5d6c546d8>, <m5.objects.L1Cache_Controller.L1Cache_Controller object at 0x7fa5d6c5e6d8>, <m5.objects.L1Cache_Controller.L1Cache_Controller object at 0x7fa5d6c666d8>, <m5.objects.L1Cache_Controller.L1Cache_Controller object at 0x7fa5d6c706d8>, <m5.objects.L1Cache_Controller.L1Cache_Controller object at 0x7fa5d6c786d8>, <m5.objects.L1Cache_Controller.L1Cache_Controller object at 0x7fa5d6c026d8>, <m5.objects.L1Cache_Controller.L1Cache_Controller object at 0x7fa5d6c0a6d8>, <m5.objects.L1Cache_Controller.L1Cache_Controller object at 0x7fa5d6c146d8>, <m5.objects.L1Cache_Controller.L1Cache_Controller object at 0x7fa5d6c1c6d8>, <m5.objects.L1Cache_Controller.L1Cache_Controller object at 0x7fa5d6c276d8>, <m5.objects.L1Cache_Controller.L1Cache_Controller object at 0x7fa5d6c2f6d8>, <m5.objects.L1Cache_Controller.L1Cache_Controller object at 0x7fa5d6c376d8>, <m5.objects.L1Cache_Controller.L1Cache_Controller object at 0x7fa5d6bc16d8>, <m5.objects.L1Cache_Controller.L1Cache_Controller object at 0x7fa5d6bc96d8>, <m5.objects.L1Cache_Controller.L1Cache_Controller object at 0x7fa5d6bd36d8>, <m5.objects.L1Cache_Controller.L1Cache_Controller object at 0x7fa5d6bdc6d8>, <m5.objects.L1Cache_Controller.L1Cache_Controller object at 0x7fa5d6be66d8>, <m5.objects.L1Cache_Controller.L1Cache_Controller object at 0x7fa5d6bef6d8>, <m5.objects.L1Cache_Controller.L1Cache_Controller object at 0x7fa5d6bf86d8>, <m5.objects.L1Cache_Controller.L1Cache_Controller object at 0x7fa5d6b816d8>, <m5.objects.L1Cache_Controller.L1Cache_Controller object at 0x7fa5d6b8a6d8>, <m5.objects.L1Cache_Controller.L1Cache_Controller object at 0x7fa5d6b946d8>, <m5.objects.L1Cache_Controller.L1Cache_Controller object at 0x7fa5d6b9c6d8>, <m5.objects.L1Cache_Controller.L1Cache_Controller object at 0x7fa5d6ba66d8>, <m5.objects.L1Cache_Controller.L1Cache_Controller object at 0x7fa5d6bae6d8>, <m5.objects.L1Cache_Controller.L1Cache_Controller object at 0x7fa5d6bb86d8>, <m5.objects.L1Cache_Controller.L1Cache_Controller object at 0x7fa5d6b406d8>, <m5.objects.L1Cache_Controller.L1Cache_Controller object at 0x7fa5d6b496d8>, <m5.objects.L1Cache_Controller.L1Cache_Controller object at 0x7fa5d6b526d8>, <m5.objects.L1Cache_Controller.L1Cache_Controller object at 0x7fa5d6b5c6d8>, <m5.objects.L1Cache_Controller.L1Cache_Controller object at 0x7fa5d6b656d8>, <m5.objects.L1Cache_Controller.L1Cache_Controller object at 0x7fa5d6b6e6d8>, <m5.objects.L1Cache_Controller.L1Cache_Controller object at 0x7fa5d6b776d8>, <m5.objects.L1Cache_Controller.L1Cache_Controller object at 0x7fa5d6b006d8>, <m5.objects.L1Cache_Controller.L1Cache_Controller object at 0x7fa5d6b0a6d8>, <m5.objects.L1Cache_Controller.L1Cache_Controller object at 0x7fa5d6b126d8>, <m5.objects.L1Cache_Controller.L1Cache_Controller object at 0x7fa5d6b1b6d8>, <m5.objects.L1Cache_Controller.L1Cache_Controller object at 0x7fa5d6b246d8>, <m5.objects.L1Cache_Controller.L1Cache_Controller object at 0x7fa5d6b2e6d8>, <m5.objects.L1Cache_Controller.L1Cache_Controller object at 0x7fa5d6b376d8>, <m5.objects.L1Cache_Controller.L1Cache_Controller object at 0x7fa5d6ac06d8>, <m5.objects.L1Cache_Controller.L1Cache_Controller object at 0x7fa5d6ac96d8>, <m5.objects.L1Cache_Controller.L1Cache_Controller object at 0x7fa5d6ad26d8>, <m5.objects.L1Cache_Controller.L1Cache_Controller object at 0x7fa5d6adb6d8>, <m5.objects.L1Cache_Controller.L1Cache_Controller object at 0x7fa5d6ae56d8>, <m5.objects.L1Cache_Controller.L1Cache_Controller object at 0x7fa5d6aee6d8>, <m5.objects.L1Cache_Controller.L1Cache_Controller object at 0x7fa5d6af76d8>, <m5.objects.L1Cache_Controller.L1Cache_Controller object at 0x7fa5d6a806d8>, <m5.objects.L1Cache_Controller.L1Cache_Controller object at 0x7fa5d6a896d8>, <m5.objects.L1Cache_Controller.L1Cache_Controller object at 0x7fa5d6a926d8>, <m5.objects.L1Cache_Controller.L1Cache_Controller object at 0x7fa5d6a9b6d8>, <m5.objects.L1Cache_Controller.L1Cache_Controller object at 0x7fa5d6aa46d8>, <m5.objects.L1Cache_Controller.L1Cache_Controller object at 0x7fa5d6aac6d8>, <m5.objects.L1Cache_Controller.L1Cache_Controller object at 0x7fa5d6ab66d8>, <m5.objects.L1Cache_Controller.L1Cache_Controller object at 0x7fa5d6abe6d8>, <m5.objects.L1Cache_Controller.L1Cache_Controller object at 0x7fa5d6a486d8>, <m5.objects.L1Cache_Controller.L1Cache_Controller object at 0x7fa5d6a506d8>]
l2_caches(64)=[<m5.objects.L2Cache_Controller.L2Cache_Controller object at 0x7fa5d6a5b3c8>, <m5.objects.L2Cache_Controller.L2Cache_Controller object at 0x7fa5d6a5be10>, <m5.objects.L2Cache_Controller.L2Cache_Controller object at 0x7fa5d6a64898>, <m5.objects.L2Cache_Controller.L2Cache_Controller object at 0x7fa5d6a6c320>, <m5.objects.L2Cache_Controller.L2Cache_Controller object at 0x7fa5d6a6cd68>, <m5.objects.L2Cache_Controller.L2Cache_Controller object at 0x7fa5d6a757f0>, <m5.objects.L2Cache_Controller.L2Cache_Controller object at 0x7fa5d6a7e278>, <m5.objects.L2Cache_Controller.L2Cache_Controller object at 0x7fa5d6a7ecc0>, <m5.objects.L2Cache_Controller.L2Cache_Controller object at 0x7fa5d6a07748>, <m5.objects.L2Cache_Controller.L2Cache_Controller object at 0x7fa5d6a101d0>, <m5.objects.L2Cache_Controller.L2Cache_Controller object at 0x7fa5d6a10c18>, <m5.objects.L2Cache_Controller.L2Cache_Controller object at 0x7fa5d6a186a0>, <m5.objects.L2Cache_Controller.L2Cache_Controller object at 0x7fa5d6a21128>, <m5.objects.L2Cache_Controller.L2Cache_Controller object at 0x7fa5d6a21b70>, <m5.objects.L2Cache_Controller.L2Cache_Controller object at 0x7fa5d6a2a5f8>, <m5.objects.L2Cache_Controller.L2Cache_Controller object at 0x7fa5d6a34080>, <m5.objects.L2Cache_Controller.L2Cache_Controller object at 0x7fa5d6a34ac8>, <m5.objects.L2Cache_Controller.L2Cache_Controller object at 0x7fa5d6a3d550>, <m5.objects.L2Cache_Controller.L2Cache_Controller object at 0x7fa5d6a3df98>, <m5.objects.L2Cache_Controller.L2Cache_Controller object at 0x7fa5d69c6a20>, <m5.objects.L2Cache_Controller.L2Cache_Controller object at 0x7fa5d69ce4a8>, <m5.objects.L2Cache_Controller.L2Cache_Controller object at 0x7fa5d69ceef0>, <m5.objects.L2Cache_Controller.L2Cache_Controller object at 0x7fa5d69d7978>, <m5.objects.L2Cache_Controller.L2Cache_Controller object at 0x7fa5d69e1400>, <m5.objects.L2Cache_Controller.L2Cache_Controller object at 0x7fa5d69e1e48>, <m5.objects.L2Cache_Controller.L2Cache_Controller object at 0x7fa5d69ea8d0>, <m5.objects.L2Cache_Controller.L2Cache_Controller object at 0x7fa5d69f2358>, <m5.objects.L2Cache_Controller.L2Cache_Controller object at 0x7fa5d69f2da0>, <m5.objects.L2Cache_Controller.L2Cache_Controller object at 0x7fa5d69fc828>, <m5.objects.L2Cache_Controller.L2Cache_Controller object at 0x7fa5d69852b0>, <m5.objects.L2Cache_Controller.L2Cache_Controller object at 0x7fa5d6985cf8>, <m5.objects.L2Cache_Controller.L2Cache_Controller object at 0x7fa5d698e780>, <m5.objects.L2Cache_Controller.L2Cache_Controller object at 0x7fa5d6997208>, <m5.objects.L2Cache_Controller.L2Cache_Controller object at 0x7fa5d6997c50>, <m5.objects.L2Cache_Controller.L2Cache_Controller object at 0x7fa5d69a06d8>, <m5.objects.L2Cache_Controller.L2Cache_Controller object at 0x7fa5d69a9160>, <m5.objects.L2Cache_Controller.L2Cache_Controller object at 0x7fa5d69a9ba8>, <m5.objects.L2Cache_Controller.L2Cache_Controller object at 0x7fa5d69b1630>, <m5.objects.L2Cache_Controller.L2Cache_Controller object at 0x7fa5d69bb0b8>, <m5.objects.L2Cache_Controller.L2Cache_Controller object at 0x7fa5d69bbb00>, <m5.objects.L2Cache_Controller.L2Cache_Controller object at 0x7fa5d6944588>, <m5.objects.L2Cache_Controller.L2Cache_Controller object at 0x7fa5d6944fd0>, <m5.objects.L2Cache_Controller.L2Cache_Controller object at 0x7fa5d694ea58>, <m5.objects.L2Cache_Controller.L2Cache_Controller object at 0x7fa5d69574e0>, <m5.objects.L2Cache_Controller.L2Cache_Controller object at 0x7fa5d6957f28>, <m5.objects.L2Cache_Controller.L2Cache_Controller object at 0x7fa5d695f9b0>, <m5.objects.L2Cache_Controller.L2Cache_Controller object at 0x7fa5d6968438>, <m5.objects.L2Cache_Controller.L2Cache_Controller object at 0x7fa5d6968e80>, <m5.objects.L2Cache_Controller.L2Cache_Controller object at 0x7fa5d6971908>, <m5.objects.L2Cache_Controller.L2Cache_Controller object at 0x7fa5d697a390>, <m5.objects.L2Cache_Controller.L2Cache_Controller object at 0x7fa5d697add8>, <m5.objects.L2Cache_Controller.L2Cache_Controller object at 0x7fa5d6903860>, <m5.objects.L2Cache_Controller.L2Cache_Controller object at 0x7fa5d690b2e8>, <m5.objects.L2Cache_Controller.L2Cache_Controller object at 0x7fa5d690bd30>, <m5.objects.L2Cache_Controller.L2Cache_Controller object at 0x7fa5d69157b8>, <m5.objects.L2Cache_Controller.L2Cache_Controller object at 0x7fa5d691e240>, <m5.objects.L2Cache_Controller.L2Cache_Controller object at 0x7fa5d691ec88>, <m5.objects.L2Cache_Controller.L2Cache_Controller object at 0x7fa5d6926710>, <m5.objects.L2Cache_Controller.L2Cache_Controller object at 0x7fa5d79dc0b8>, <m5.objects.L2Cache_Controller.L2Cache_Controller object at 0x7fa5d79dcb70>, <m5.objects.L2Cache_Controller.L2Cache_Controller object at 0x7fa5d69365f8>, <m5.objects.L2Cache_Controller.L2Cache_Controller object at 0x7fa5d68c0080>, <m5.objects.L2Cache_Controller.L2Cache_Controller object at 0x7fa5d68c0ac8>, <m5.objects.L2Cache_Controller.L2Cache_Controller object at 0x7fa5d68c9550>]
dirs(16)=[<m5.objects.Directory_Controller.Directory_Controller object at 0x7fa5d68c9e80>, <m5.objects.Directory_Controller.Directory_Controller object at 0x7fa5d68d00f0>, <m5.objects.Directory_Controller.Directory_Controller object at 0x7fa5d68d0320>, <m5.objects.Directory_Controller.Directory_Controller object at 0x7fa5d68d0550>, <m5.objects.Directory_Controller.Directory_Controller object at 0x7fa5d68d0780>, <m5.objects.Directory_Controller.Directory_Controller object at 0x7fa5d68d09b0>, <m5.objects.Directory_Controller.Directory_Controller object at 0x7fa5d68d0be0>, <m5.objects.Directory_Controller.Directory_Controller object at 0x7fa5d68d0e10>, <m5.objects.Directory_Controller.Directory_Controller object at 0x7fa5d68dd080>, <m5.objects.Directory_Controller.Directory_Controller object at 0x7fa5d68dd2b0>, <m5.objects.Directory_Controller.Directory_Controller object at 0x7fa5d68dd4e0>, <m5.objects.Directory_Controller.Directory_Controller object at 0x7fa5d68dd710>, <m5.objects.Directory_Controller.Directory_Controller object at 0x7fa5d68dd940>, <m5.objects.Directory_Controller.Directory_Controller object at 0x7fa5d68ddb70>, <m5.objects.Directory_Controller.Directory_Controller object at 0x7fa5d68ddda0>, <m5.objects.Directory_Controller.Directory_Controller object at 0x7fa5d68ddfd0>]
dmas(2)=[<m5.objects.DMA_Controller.DMA_Controller object at 0x7fa5d688fef0>, <m5.objects.DMA_Controller.DMA_Controller object at 0x7fa5d6898550>]
others(0)=[]
ingesting configs/topologies/nr_list/cmesh_x_noci_naive.nrl
ingesting configs/topologies/vn_maps/cmesh_x_noci_naive_hops.vn
warn: Physical memory size specified is 32GB which is greater than 3GB.  Twice the number of memory controllers would be created.
