FileNotFoundError: [Errno 2] No such file or directory: 'configs/topologies/vn_maps/cmesh_x_noci_naive_hops.vn'

At:
  /home/yara/mithuna2/green456/netsmith_autotop/auto_top_gem5/configs/topologies/FS_NoCI_EscapeVirtualNetworks.py(472): ingest_flat_map
  /home/yara/mithuna2/green456/netsmith_autotop/auto_top_gem5/configs/topologies/FS_NoCI_EscapeVirtualNetworks.py(108): makeTopology
  /home/yara/mithuna2/green456/netsmith_autotop/auto_top_gem5/configs/ruby/Ruby.py(220): create_system
  configs/auto_top/auto_top_fs.py(173): build_test_system
  configs/auto_top/auto_top_fs.py(443): <module>
  build/X86/python/m5/main.py(434): main
gem5 Simulator System.  https://www.gem5.org
gem5 is copyrighted software; use the --copyright option for details.

gem5 version 22.0.0.2
gem5 compiled Mar 20 2023 15:13:00
gem5 started Mar 20 2023 15:53:34
gem5 executing on mnemosyne03.ecn.purdue.edu, pid 6234
command line: ./build/X86/gem5.fast -d ./parsec_results/parsec_noci_largemem_18GHz_500kB/100m/dedup/cmesh_x_noci/ configs/auto_top/auto_top_fs.py -I 100000000 --benchmark_parsec dedup -r 1 --checkpoint-dir ./parsec_checkpoints/largemem/dedup --router_map_file configs/topologies/paper_solutions/cmesh_x_noci.map --flat_vn_map_file configs/topologies/vn_maps/cmesh_x_noci_naive_hops.vn --flat_nr_map_file configs/topologies/nr_list/cmesh_x_noci_naive.nrl --topology FS_NoCI_EscapeVirtualNetworks --noi_routers 20 --noc_clk 1.8GHz --sys-clock 1.8GHz --ruby-clock 1.8GHz --noi_clk 3.6GHz --num-cpus 64 --mem_or_coh mem --num-dirs 16 --num-l2caches 64 --l2_size 500kB --num_chiplets 4 --mem-size 32GB --caches --ruby --network garnet --kernel parsec_disk_image/x86-linux-kernel-4.19.83 --disk-image parsec_disk_image/x86-parsec --cpu-type X86O3CPU --restore-with-cpu X86O3CPU --routing-algorithm 2 --use_escape_vns --vcs-per-vnet 10 --evn_deadlock_partition 1 --evn_n_deadlock_free 1 --evn_min_n_deadlock_free 9

info: Standard input is not a terminal, disabling listeners.
l1_caches(64)=[<m5.objects.L1Cache_Controller.L1Cache_Controller object at 0x7fd35790b6a0>, <m5.objects.L1Cache_Controller.L1Cache_Controller object at 0x7fd357914710>, <m5.objects.L1Cache_Controller.L1Cache_Controller object at 0x7fd35791c710>, <m5.objects.L1Cache_Controller.L1Cache_Controller object at 0x7fd357926710>, <m5.objects.L1Cache_Controller.L1Cache_Controller object at 0x7fd35792e710>, <m5.objects.L1Cache_Controller.L1Cache_Controller object at 0x7fd3578b9710>, <m5.objects.L1Cache_Controller.L1Cache_Controller object at 0x7fd3578c1710>, <m5.objects.L1Cache_Controller.L1Cache_Controller object at 0x7fd3578cb710>, <m5.objects.L1Cache_Controller.L1Cache_Controller object at 0x7fd3578d3710>, <m5.objects.L1Cache_Controller.L1Cache_Controller object at 0x7fd3578dc710>, <m5.objects.L1Cache_Controller.L1Cache_Controller object at 0x7fd3578e6710>, <m5.objects.L1Cache_Controller.L1Cache_Controller object at 0x7fd3578ee710>, <m5.objects.L1Cache_Controller.L1Cache_Controller object at 0x7fd357878710>, <m5.objects.L1Cache_Controller.L1Cache_Controller object at 0x7fd357880710>, <m5.objects.L1Cache_Controller.L1Cache_Controller object at 0x7fd35788a710>, <m5.objects.L1Cache_Controller.L1Cache_Controller object at 0x7fd357892710>, <m5.objects.L1Cache_Controller.L1Cache_Controller object at 0x7fd35789c710>, <m5.objects.L1Cache_Controller.L1Cache_Controller object at 0x7fd3578a5710>, <m5.objects.L1Cache_Controller.L1Cache_Controller object at 0x7fd3578ae710>, <m5.objects.L1Cache_Controller.L1Cache_Controller object at 0x7fd357837710>, <m5.objects.L1Cache_Controller.L1Cache_Controller object at 0x7fd35783f710>, <m5.objects.L1Cache_Controller.L1Cache_Controller object at 0x7fd357849710>, <m5.objects.L1Cache_Controller.L1Cache_Controller object at 0x7fd357851710>, <m5.objects.L1Cache_Controller.L1Cache_Controller object at 0x7fd35785c710>, <m5.objects.L1Cache_Controller.L1Cache_Controller object at 0x7fd357864710>, <m5.objects.L1Cache_Controller.L1Cache_Controller object at 0x7fd35786e710>, <m5.objects.L1Cache_Controller.L1Cache_Controller object at 0x7fd3577f7710>, <m5.objects.L1Cache_Controller.L1Cache_Controller object at 0x7fd357800710>, <m5.objects.L1Cache_Controller.L1Cache_Controller object at 0x7fd357809710>, <m5.objects.L1Cache_Controller.L1Cache_Controller object at 0x7fd357813710>, <m5.objects.L1Cache_Controller.L1Cache_Controller object at 0x7fd35781c710>, <m5.objects.L1Cache_Controller.L1Cache_Controller object at 0x7fd357824710>, <m5.objects.L1Cache_Controller.L1Cache_Controller object at 0x7fd35782e710>, <m5.objects.L1Cache_Controller.L1Cache_Controller object at 0x7fd3577b6710>, <m5.objects.L1Cache_Controller.L1Cache_Controller object at 0x7fd3577bf710>, <m5.objects.L1Cache_Controller.L1Cache_Controller object at 0x7fd3577c8710>, <m5.objects.L1Cache_Controller.L1Cache_Controller object at 0x7fd3577d1710>, <m5.objects.L1Cache_Controller.L1Cache_Controller object at 0x7fd3577db710>, <m5.objects.L1Cache_Controller.L1Cache_Controller object at 0x7fd3577e4710>, <m5.objects.L1Cache_Controller.L1Cache_Controller object at 0x7fd3577ed710>, <m5.objects.L1Cache_Controller.L1Cache_Controller object at 0x7fd357776710>, <m5.objects.L1Cache_Controller.L1Cache_Controller object at 0x7fd357780710>, <m5.objects.L1Cache_Controller.L1Cache_Controller object at 0x7fd357788710>, <m5.objects.L1Cache_Controller.L1Cache_Controller object at 0x7fd357791710>, <m5.objects.L1Cache_Controller.L1Cache_Controller object at 0x7fd35779a710>, <m5.objects.L1Cache_Controller.L1Cache_Controller object at 0x7fd3577a3710>, <m5.objects.L1Cache_Controller.L1Cache_Controller object at 0x7fd3577ac710>, <m5.objects.L1Cache_Controller.L1Cache_Controller object at 0x7fd357735710>, <m5.objects.L1Cache_Controller.L1Cache_Controller object at 0x7fd35773e710>, <m5.objects.L1Cache_Controller.L1Cache_Controller object at 0x7fd357747710>, <m5.objects.L1Cache_Controller.L1Cache_Controller object at 0x7fd357750710>, <m5.objects.L1Cache_Controller.L1Cache_Controller object at 0x7fd35775b710>, <m5.objects.L1Cache_Controller.L1Cache_Controller object at 0x7fd357763710>, <m5.objects.L1Cache_Controller.L1Cache_Controller object at 0x7fd35776d710>, <m5.objects.L1Cache_Controller.L1Cache_Controller object at 0x7fd3576f6710>, <m5.objects.L1Cache_Controller.L1Cache_Controller object at 0x7fd3576ff710>, <m5.objects.L1Cache_Controller.L1Cache_Controller object at 0x7fd357708710>, <m5.objects.L1Cache_Controller.L1Cache_Controller object at 0x7fd357711710>, <m5.objects.L1Cache_Controller.L1Cache_Controller object at 0x7fd35771a710>, <m5.objects.L1Cache_Controller.L1Cache_Controller object at 0x7fd357722710>, <m5.objects.L1Cache_Controller.L1Cache_Controller object at 0x7fd35772c710>, <m5.objects.L1Cache_Controller.L1Cache_Controller object at 0x7fd357734710>, <m5.objects.L1Cache_Controller.L1Cache_Controller object at 0x7fd3576be710>, <m5.objects.L1Cache_Controller.L1Cache_Controller object at 0x7fd3576c6710>]
l2_caches(64)=[<m5.objects.L2Cache_Controller.L2Cache_Controller object at 0x7fd3576d0400>, <m5.objects.L2Cache_Controller.L2Cache_Controller object at 0x7fd3576d0e48>, <m5.objects.L2Cache_Controller.L2Cache_Controller object at 0x7fd3576da8d0>, <m5.objects.L2Cache_Controller.L2Cache_Controller object at 0x7fd3576e2358>, <m5.objects.L2Cache_Controller.L2Cache_Controller object at 0x7fd3576e2da0>, <m5.objects.L2Cache_Controller.L2Cache_Controller object at 0x7fd3576eb828>, <m5.objects.L2Cache_Controller.L2Cache_Controller object at 0x7fd3576f42b0>, <m5.objects.L2Cache_Controller.L2Cache_Controller object at 0x7fd3576f4cf8>, <m5.objects.L2Cache_Controller.L2Cache_Controller object at 0x7fd35767d780>, <m5.objects.L2Cache_Controller.L2Cache_Controller object at 0x7fd357685208>, <m5.objects.L2Cache_Controller.L2Cache_Controller object at 0x7fd357685c50>, <m5.objects.L2Cache_Controller.L2Cache_Controller object at 0x7fd35768e6d8>, <m5.objects.L2Cache_Controller.L2Cache_Controller object at 0x7fd357698160>, <m5.objects.L2Cache_Controller.L2Cache_Controller object at 0x7fd357698ba8>, <m5.objects.L2Cache_Controller.L2Cache_Controller object at 0x7fd3576a0630>, <m5.objects.L2Cache_Controller.L2Cache_Controller object at 0x7fd3576aa0b8>, <m5.objects.L2Cache_Controller.L2Cache_Controller object at 0x7fd3576aab00>, <m5.objects.L2Cache_Controller.L2Cache_Controller object at 0x7fd3576b3588>, <m5.objects.L2Cache_Controller.L2Cache_Controller object at 0x7fd3576b3fd0>, <m5.objects.L2Cache_Controller.L2Cache_Controller object at 0x7fd35763ca58>, <m5.objects.L2Cache_Controller.L2Cache_Controller object at 0x7fd3576444e0>, <m5.objects.L2Cache_Controller.L2Cache_Controller object at 0x7fd357644f28>, <m5.objects.L2Cache_Controller.L2Cache_Controller object at 0x7fd35764d9b0>, <m5.objects.L2Cache_Controller.L2Cache_Controller object at 0x7fd357656438>, <m5.objects.L2Cache_Controller.L2Cache_Controller object at 0x7fd357656e80>, <m5.objects.L2Cache_Controller.L2Cache_Controller object at 0x7fd357660908>, <m5.objects.L2Cache_Controller.L2Cache_Controller object at 0x7fd357668390>, <m5.objects.L2Cache_Controller.L2Cache_Controller object at 0x7fd357668dd8>, <m5.objects.L2Cache_Controller.L2Cache_Controller object at 0x7fd357672860>, <m5.objects.L2Cache_Controller.L2Cache_Controller object at 0x7fd3575fb2e8>, <m5.objects.L2Cache_Controller.L2Cache_Controller object at 0x7fd3575fbd30>, <m5.objects.L2Cache_Controller.L2Cache_Controller object at 0x7fd3576047b8>, <m5.objects.L2Cache_Controller.L2Cache_Controller object at 0x7fd35760d240>, <m5.objects.L2Cache_Controller.L2Cache_Controller object at 0x7fd35760dc88>, <m5.objects.L2Cache_Controller.L2Cache_Controller object at 0x7fd357616710>, <m5.objects.L2Cache_Controller.L2Cache_Controller object at 0x7fd35761f198>, <m5.objects.L2Cache_Controller.L2Cache_Controller object at 0x7fd35761fbe0>, <m5.objects.L2Cache_Controller.L2Cache_Controller object at 0x7fd357627668>, <m5.objects.L2Cache_Controller.L2Cache_Controller object at 0x7fd3576300f0>, <m5.objects.L2Cache_Controller.L2Cache_Controller object at 0x7fd357630b38>, <m5.objects.L2Cache_Controller.L2Cache_Controller object at 0x7fd3575b95c0>, <m5.objects.L2Cache_Controller.L2Cache_Controller object at 0x7fd3575c4048>, <m5.objects.L2Cache_Controller.L2Cache_Controller object at 0x7fd3575c4a90>, <m5.objects.L2Cache_Controller.L2Cache_Controller object at 0x7fd3575cd518>, <m5.objects.L2Cache_Controller.L2Cache_Controller object at 0x7fd3575cdf60>, <m5.objects.L2Cache_Controller.L2Cache_Controller object at 0x7fd3575d69e8>, <m5.objects.L2Cache_Controller.L2Cache_Controller object at 0x7fd3575de470>, <m5.objects.L2Cache_Controller.L2Cache_Controller object at 0x7fd3575deeb8>, <m5.objects.L2Cache_Controller.L2Cache_Controller object at 0x7fd3575e7940>, <m5.objects.L2Cache_Controller.L2Cache_Controller object at 0x7fd3575f03c8>, <m5.objects.L2Cache_Controller.L2Cache_Controller object at 0x7fd3575f0e10>, <m5.objects.L2Cache_Controller.L2Cache_Controller object at 0x7fd357579898>, <m5.objects.L2Cache_Controller.L2Cache_Controller object at 0x7fd357581320>, <m5.objects.L2Cache_Controller.L2Cache_Controller object at 0x7fd357581d68>, <m5.objects.L2Cache_Controller.L2Cache_Controller object at 0x7fd35758b7f0>, <m5.objects.L2Cache_Controller.L2Cache_Controller object at 0x7fd357594278>, <m5.objects.L2Cache_Controller.L2Cache_Controller object at 0x7fd357594cc0>, <m5.objects.L2Cache_Controller.L2Cache_Controller object at 0x7fd35759d748>, <m5.objects.L2Cache_Controller.L2Cache_Controller object at 0x7fd3586530f0>, <m5.objects.L2Cache_Controller.L2Cache_Controller object at 0x7fd358653ba8>, <m5.objects.L2Cache_Controller.L2Cache_Controller object at 0x7fd3575ac630>, <m5.objects.L2Cache_Controller.L2Cache_Controller object at 0x7fd3575360b8>, <m5.objects.L2Cache_Controller.L2Cache_Controller object at 0x7fd357536b00>, <m5.objects.L2Cache_Controller.L2Cache_Controller object at 0x7fd35753e588>]
dirs(16)=[<m5.objects.Directory_Controller.Directory_Controller object at 0x7fd35753eeb8>, <m5.objects.Directory_Controller.Directory_Controller object at 0x7fd357546128>, <m5.objects.Directory_Controller.Directory_Controller object at 0x7fd357546358>, <m5.objects.Directory_Controller.Directory_Controller object at 0x7fd357546588>, <m5.objects.Directory_Controller.Directory_Controller object at 0x7fd3575467b8>, <m5.objects.Directory_Controller.Directory_Controller object at 0x7fd3575469e8>, <m5.objects.Directory_Controller.Directory_Controller object at 0x7fd357546c18>, <m5.objects.Directory_Controller.Directory_Controller object at 0x7fd357546e48>, <m5.objects.Directory_Controller.Directory_Controller object at 0x7fd3575530b8>, <m5.objects.Directory_Controller.Directory_Controller object at 0x7fd3575532e8>, <m5.objects.Directory_Controller.Directory_Controller object at 0x7fd357553518>, <m5.objects.Directory_Controller.Directory_Controller object at 0x7fd357553748>, <m5.objects.Directory_Controller.Directory_Controller object at 0x7fd357553978>, <m5.objects.Directory_Controller.Directory_Controller object at 0x7fd357553ba8>, <m5.objects.Directory_Controller.Directory_Controller object at 0x7fd357553dd8>, <m5.objects.Directory_Controller.Directory_Controller object at 0x7fd35755e048>]
dmas(2)=[<m5.objects.DMA_Controller.DMA_Controller object at 0x7fd357505f28>, <m5.objects.DMA_Controller.DMA_Controller object at 0x7fd35750e588>]
others(0)=[]
ingesting configs/topologies/nr_list/cmesh_x_noci_naive.nrl
ingesting configs/topologies/vn_maps/cmesh_x_noci_naive_hops.vn
warn: Physical memory size specified is 32GB which is greater than 3GB.  Twice the number of memory controllers would be created.
