FileNotFoundError: [Errno 2] No such file or directory: 'configs/topologies/vn_maps/cmesh_x_noci_naive_hops.vn'

At:
  /home/yara/mithuna2/green456/netsmith_autotop/auto_top_gem5/configs/topologies/FS_NoCI_EscapeVirtualNetworks.py(472): ingest_flat_map
  /home/yara/mithuna2/green456/netsmith_autotop/auto_top_gem5/configs/topologies/FS_NoCI_EscapeVirtualNetworks.py(108): makeTopology
  /home/yara/mithuna2/green456/netsmith_autotop/auto_top_gem5/configs/ruby/Ruby.py(220): create_system
  configs/auto_top/auto_top_fs.py(173): build_test_system
  configs/auto_top/auto_top_fs.py(443): <module>
  build/X86/python/m5/main.py(434): main
gem5 Simulator System.  https://www.gem5.org
gem5 is copyrighted software; use the --copyright option for details.

gem5 version 22.0.0.2
gem5 compiled Mar 20 2023 15:13:00
gem5 started Mar 20 2023 15:53:25
gem5 executing on mnemosyne03.ecn.purdue.edu, pid 6189
command line: ./build/X86/gem5.fast -d ./parsec_results/parsec_noci_largemem_18GHz_500kB/100m/facesim/cmesh_x_noci/ configs/auto_top/auto_top_fs.py -I 100000000 --benchmark_parsec facesim -r 1 --checkpoint-dir ./parsec_checkpoints/largemem/facesim --router_map_file configs/topologies/paper_solutions/cmesh_x_noci.map --flat_vn_map_file configs/topologies/vn_maps/cmesh_x_noci_naive_hops.vn --flat_nr_map_file configs/topologies/nr_list/cmesh_x_noci_naive.nrl --topology FS_NoCI_EscapeVirtualNetworks --noi_routers 20 --noc_clk 1.8GHz --sys-clock 1.8GHz --ruby-clock 1.8GHz --noi_clk 3.6GHz --num-cpus 64 --mem_or_coh mem --num-dirs 16 --num-l2caches 64 --l2_size 500kB --num_chiplets 4 --mem-size 32GB --caches --ruby --network garnet --kernel parsec_disk_image/vmlinux-5.4.49 --disk-image parsec_disk_image/x86-parsec --cpu-type X86O3CPU --restore-with-cpu X86O3CPU --routing-algorithm 2 --use_escape_vns --vcs-per-vnet 10 --evn_deadlock_partition 1 --evn_n_deadlock_free 1 --evn_min_n_deadlock_free 9

info: Standard input is not a terminal, disabling listeners.
l1_caches(64)=[<m5.objects.L1Cache_Controller.L1Cache_Controller object at 0x7f64b0d6a6d8>, <m5.objects.L1Cache_Controller.L1Cache_Controller object at 0x7f64b0d74748>, <m5.objects.L1Cache_Controller.L1Cache_Controller object at 0x7f64b0d7c748>, <m5.objects.L1Cache_Controller.L1Cache_Controller object at 0x7f64b0d86710>, <m5.objects.L1Cache_Controller.L1Cache_Controller object at 0x7f64b0d8e710>, <m5.objects.L1Cache_Controller.L1Cache_Controller object at 0x7f64b0d19710>, <m5.objects.L1Cache_Controller.L1Cache_Controller object at 0x7f64b0d21710>, <m5.objects.L1Cache_Controller.L1Cache_Controller object at 0x7f64b0d2b710>, <m5.objects.L1Cache_Controller.L1Cache_Controller object at 0x7f64b0d33710>, <m5.objects.L1Cache_Controller.L1Cache_Controller object at 0x7f64b0d3c710>, <m5.objects.L1Cache_Controller.L1Cache_Controller object at 0x7f64b0d46710>, <m5.objects.L1Cache_Controller.L1Cache_Controller object at 0x7f64b0d4e710>, <m5.objects.L1Cache_Controller.L1Cache_Controller object at 0x7f64b0cd8710>, <m5.objects.L1Cache_Controller.L1Cache_Controller object at 0x7f64b0ce0710>, <m5.objects.L1Cache_Controller.L1Cache_Controller object at 0x7f64b0cea710>, <m5.objects.L1Cache_Controller.L1Cache_Controller object at 0x7f64b0cf2710>, <m5.objects.L1Cache_Controller.L1Cache_Controller object at 0x7f64b0cfc710>, <m5.objects.L1Cache_Controller.L1Cache_Controller object at 0x7f64b0d05710>, <m5.objects.L1Cache_Controller.L1Cache_Controller object at 0x7f64b0d0e710>, <m5.objects.L1Cache_Controller.L1Cache_Controller object at 0x7f64b0c97710>, <m5.objects.L1Cache_Controller.L1Cache_Controller object at 0x7f64b0c9f710>, <m5.objects.L1Cache_Controller.L1Cache_Controller object at 0x7f64b0ca9710>, <m5.objects.L1Cache_Controller.L1Cache_Controller object at 0x7f64b0cb1710>, <m5.objects.L1Cache_Controller.L1Cache_Controller object at 0x7f64b0cbc710>, <m5.objects.L1Cache_Controller.L1Cache_Controller object at 0x7f64b0cc4710>, <m5.objects.L1Cache_Controller.L1Cache_Controller object at 0x7f64b0cce710>, <m5.objects.L1Cache_Controller.L1Cache_Controller object at 0x7f64b0c57710>, <m5.objects.L1Cache_Controller.L1Cache_Controller object at 0x7f64b0c60710>, <m5.objects.L1Cache_Controller.L1Cache_Controller object at 0x7f64b0c69710>, <m5.objects.L1Cache_Controller.L1Cache_Controller object at 0x7f64b0c73710>, <m5.objects.L1Cache_Controller.L1Cache_Controller object at 0x7f64b0c7c710>, <m5.objects.L1Cache_Controller.L1Cache_Controller object at 0x7f64b0c84710>, <m5.objects.L1Cache_Controller.L1Cache_Controller object at 0x7f64b0c8e710>, <m5.objects.L1Cache_Controller.L1Cache_Controller object at 0x7f64b0c16710>, <m5.objects.L1Cache_Controller.L1Cache_Controller object at 0x7f64b0c1f710>, <m5.objects.L1Cache_Controller.L1Cache_Controller object at 0x7f64b0c28710>, <m5.objects.L1Cache_Controller.L1Cache_Controller object at 0x7f64b0c31710>, <m5.objects.L1Cache_Controller.L1Cache_Controller object at 0x7f64b0c3b710>, <m5.objects.L1Cache_Controller.L1Cache_Controller object at 0x7f64b0c44710>, <m5.objects.L1Cache_Controller.L1Cache_Controller object at 0x7f64b0c4d710>, <m5.objects.L1Cache_Controller.L1Cache_Controller object at 0x7f64b0bd6710>, <m5.objects.L1Cache_Controller.L1Cache_Controller object at 0x7f64b0be0710>, <m5.objects.L1Cache_Controller.L1Cache_Controller object at 0x7f64b0be8710>, <m5.objects.L1Cache_Controller.L1Cache_Controller object at 0x7f64b0bf1710>, <m5.objects.L1Cache_Controller.L1Cache_Controller object at 0x7f64b0bfa710>, <m5.objects.L1Cache_Controller.L1Cache_Controller object at 0x7f64b0c03710>, <m5.objects.L1Cache_Controller.L1Cache_Controller object at 0x7f64b0c0c710>, <m5.objects.L1Cache_Controller.L1Cache_Controller object at 0x7f64b0b95710>, <m5.objects.L1Cache_Controller.L1Cache_Controller object at 0x7f64b0b9f710>, <m5.objects.L1Cache_Controller.L1Cache_Controller object at 0x7f64b0ba8710>, <m5.objects.L1Cache_Controller.L1Cache_Controller object at 0x7f64b0bb0710>, <m5.objects.L1Cache_Controller.L1Cache_Controller object at 0x7f64b0bbb710>, <m5.objects.L1Cache_Controller.L1Cache_Controller object at 0x7f64b0bc3710>, <m5.objects.L1Cache_Controller.L1Cache_Controller object at 0x7f64b0bcd710>, <m5.objects.L1Cache_Controller.L1Cache_Controller object at 0x7f64b0b56710>, <m5.objects.L1Cache_Controller.L1Cache_Controller object at 0x7f64b0b5f710>, <m5.objects.L1Cache_Controller.L1Cache_Controller object at 0x7f64b0b68710>, <m5.objects.L1Cache_Controller.L1Cache_Controller object at 0x7f64b0b71710>, <m5.objects.L1Cache_Controller.L1Cache_Controller object at 0x7f64b0b7a710>, <m5.objects.L1Cache_Controller.L1Cache_Controller object at 0x7f64b0b82710>, <m5.objects.L1Cache_Controller.L1Cache_Controller object at 0x7f64b0b8c710>, <m5.objects.L1Cache_Controller.L1Cache_Controller object at 0x7f64b0b94710>, <m5.objects.L1Cache_Controller.L1Cache_Controller object at 0x7f64b0b1e710>, <m5.objects.L1Cache_Controller.L1Cache_Controller object at 0x7f64b0b26710>]
l2_caches(64)=[<m5.objects.L2Cache_Controller.L2Cache_Controller object at 0x7f64b0b2f400>, <m5.objects.L2Cache_Controller.L2Cache_Controller object at 0x7f64b0b2fe48>, <m5.objects.L2Cache_Controller.L2Cache_Controller object at 0x7f64b0b3a8d0>, <m5.objects.L2Cache_Controller.L2Cache_Controller object at 0x7f64b0b42358>, <m5.objects.L2Cache_Controller.L2Cache_Controller object at 0x7f64b0b42da0>, <m5.objects.L2Cache_Controller.L2Cache_Controller object at 0x7f64b0b4b828>, <m5.objects.L2Cache_Controller.L2Cache_Controller object at 0x7f64b0b542b0>, <m5.objects.L2Cache_Controller.L2Cache_Controller object at 0x7f64b0b54cf8>, <m5.objects.L2Cache_Controller.L2Cache_Controller object at 0x7f64b0add780>, <m5.objects.L2Cache_Controller.L2Cache_Controller object at 0x7f64b0ae5208>, <m5.objects.L2Cache_Controller.L2Cache_Controller object at 0x7f64b0ae5c50>, <m5.objects.L2Cache_Controller.L2Cache_Controller object at 0x7f64b0aee6d8>, <m5.objects.L2Cache_Controller.L2Cache_Controller object at 0x7f64b0af7160>, <m5.objects.L2Cache_Controller.L2Cache_Controller object at 0x7f64b0af7ba8>, <m5.objects.L2Cache_Controller.L2Cache_Controller object at 0x7f64b0b00630>, <m5.objects.L2Cache_Controller.L2Cache_Controller object at 0x7f64b0b0a0b8>, <m5.objects.L2Cache_Controller.L2Cache_Controller object at 0x7f64b0b0ab00>, <m5.objects.L2Cache_Controller.L2Cache_Controller object at 0x7f64b0b13588>, <m5.objects.L2Cache_Controller.L2Cache_Controller object at 0x7f64b0b13fd0>, <m5.objects.L2Cache_Controller.L2Cache_Controller object at 0x7f64b0a9ca58>, <m5.objects.L2Cache_Controller.L2Cache_Controller object at 0x7f64b0aa44e0>, <m5.objects.L2Cache_Controller.L2Cache_Controller object at 0x7f64b0aa4f28>, <m5.objects.L2Cache_Controller.L2Cache_Controller object at 0x7f64b0aad9b0>, <m5.objects.L2Cache_Controller.L2Cache_Controller object at 0x7f64b0ab6438>, <m5.objects.L2Cache_Controller.L2Cache_Controller object at 0x7f64b0ab6e80>, <m5.objects.L2Cache_Controller.L2Cache_Controller object at 0x7f64b0ac0908>, <m5.objects.L2Cache_Controller.L2Cache_Controller object at 0x7f64b0ac8390>, <m5.objects.L2Cache_Controller.L2Cache_Controller object at 0x7f64b0ac8dd8>, <m5.objects.L2Cache_Controller.L2Cache_Controller object at 0x7f64b0ad2860>, <m5.objects.L2Cache_Controller.L2Cache_Controller object at 0x7f64b0a5b2e8>, <m5.objects.L2Cache_Controller.L2Cache_Controller object at 0x7f64b0a5bd30>, <m5.objects.L2Cache_Controller.L2Cache_Controller object at 0x7f64b0a647b8>, <m5.objects.L2Cache_Controller.L2Cache_Controller object at 0x7f64b0a6d240>, <m5.objects.L2Cache_Controller.L2Cache_Controller object at 0x7f64b0a6dc88>, <m5.objects.L2Cache_Controller.L2Cache_Controller object at 0x7f64b0a76710>, <m5.objects.L2Cache_Controller.L2Cache_Controller object at 0x7f64b0a7f198>, <m5.objects.L2Cache_Controller.L2Cache_Controller object at 0x7f64b0a7fbe0>, <m5.objects.L2Cache_Controller.L2Cache_Controller object at 0x7f64b0a87668>, <m5.objects.L2Cache_Controller.L2Cache_Controller object at 0x7f64b0a900f0>, <m5.objects.L2Cache_Controller.L2Cache_Controller object at 0x7f64b0a90b38>, <m5.objects.L2Cache_Controller.L2Cache_Controller object at 0x7f64b0a1a5c0>, <m5.objects.L2Cache_Controller.L2Cache_Controller object at 0x7f64b0a24048>, <m5.objects.L2Cache_Controller.L2Cache_Controller object at 0x7f64b0a24a90>, <m5.objects.L2Cache_Controller.L2Cache_Controller object at 0x7f64b0a2d518>, <m5.objects.L2Cache_Controller.L2Cache_Controller object at 0x7f64b0a2df60>, <m5.objects.L2Cache_Controller.L2Cache_Controller object at 0x7f64b0a359e8>, <m5.objects.L2Cache_Controller.L2Cache_Controller object at 0x7f64b0a3e470>, <m5.objects.L2Cache_Controller.L2Cache_Controller object at 0x7f64b0a3eeb8>, <m5.objects.L2Cache_Controller.L2Cache_Controller object at 0x7f64b0a47940>, <m5.objects.L2Cache_Controller.L2Cache_Controller object at 0x7f64b0a503c8>, <m5.objects.L2Cache_Controller.L2Cache_Controller object at 0x7f64b0a50e10>, <m5.objects.L2Cache_Controller.L2Cache_Controller object at 0x7f64b09d9898>, <m5.objects.L2Cache_Controller.L2Cache_Controller object at 0x7f64b09e1320>, <m5.objects.L2Cache_Controller.L2Cache_Controller object at 0x7f64b09e1d68>, <m5.objects.L2Cache_Controller.L2Cache_Controller object at 0x7f64b09eb7f0>, <m5.objects.L2Cache_Controller.L2Cache_Controller object at 0x7f64b09f4278>, <m5.objects.L2Cache_Controller.L2Cache_Controller object at 0x7f64b09f4cc0>, <m5.objects.L2Cache_Controller.L2Cache_Controller object at 0x7f64b09fd748>, <m5.objects.L2Cache_Controller.L2Cache_Controller object at 0x7f64b1ab30f0>, <m5.objects.L2Cache_Controller.L2Cache_Controller object at 0x7f64b1ab3ba8>, <m5.objects.L2Cache_Controller.L2Cache_Controller object at 0x7f64b0a0c630>, <m5.objects.L2Cache_Controller.L2Cache_Controller object at 0x7f64b09960b8>, <m5.objects.L2Cache_Controller.L2Cache_Controller object at 0x7f64b0996b00>, <m5.objects.L2Cache_Controller.L2Cache_Controller object at 0x7f64b099e588>]
dirs(16)=[<m5.objects.Directory_Controller.Directory_Controller object at 0x7f64b099eeb8>, <m5.objects.Directory_Controller.Directory_Controller object at 0x7f64b09a6128>, <m5.objects.Directory_Controller.Directory_Controller object at 0x7f64b09a6358>, <m5.objects.Directory_Controller.Directory_Controller object at 0x7f64b09a6588>, <m5.objects.Directory_Controller.Directory_Controller object at 0x7f64b09a67b8>, <m5.objects.Directory_Controller.Directory_Controller object at 0x7f64b09a69e8>, <m5.objects.Directory_Controller.Directory_Controller object at 0x7f64b09a6c18>, <m5.objects.Directory_Controller.Directory_Controller object at 0x7f64b09a6e48>, <m5.objects.Directory_Controller.Directory_Controller object at 0x7f64b09b30b8>, <m5.objects.Directory_Controller.Directory_Controller object at 0x7f64b09b32e8>, <m5.objects.Directory_Controller.Directory_Controller object at 0x7f64b09b3518>, <m5.objects.Directory_Controller.Directory_Controller object at 0x7f64b09b3748>, <m5.objects.Directory_Controller.Directory_Controller object at 0x7f64b09b3978>, <m5.objects.Directory_Controller.Directory_Controller object at 0x7f64b09b3ba8>, <m5.objects.Directory_Controller.Directory_Controller object at 0x7f64b09b3dd8>, <m5.objects.Directory_Controller.Directory_Controller object at 0x7f64b09be048>]
dmas(2)=[<m5.objects.DMA_Controller.DMA_Controller object at 0x7f64b0965f28>, <m5.objects.DMA_Controller.DMA_Controller object at 0x7f64b096e588>]
others(0)=[]
ingesting configs/topologies/nr_list/cmesh_x_noci_naive.nrl
ingesting configs/topologies/vn_maps/cmesh_x_noci_naive_hops.vn
warn: Physical memory size specified is 32GB which is greater than 3GB.  Twice the number of memory controllers would be created.
