FileNotFoundError: [Errno 2] No such file or directory: 'configs/topologies/vn_maps/cmesh_x_noci_naive_hops.vn'

At:
  /home/yara/mithuna2/green456/netsmith_autotop/auto_top_gem5/configs/topologies/FS_NoCI_EscapeVirtualNetworks.py(472): ingest_flat_map
  /home/yara/mithuna2/green456/netsmith_autotop/auto_top_gem5/configs/topologies/FS_NoCI_EscapeVirtualNetworks.py(108): makeTopology
  /home/yara/mithuna2/green456/netsmith_autotop/auto_top_gem5/configs/ruby/Ruby.py(220): create_system
  configs/auto_top/auto_top_fs.py(173): build_test_system
  configs/auto_top/auto_top_fs.py(443): <module>
  build/X86/python/m5/main.py(434): main
gem5 Simulator System.  https://www.gem5.org
gem5 is copyrighted software; use the --copyright option for details.

gem5 version 22.0.0.2
gem5 compiled Mar 20 2023 15:13:00
gem5 started Mar 20 2023 15:53:25
gem5 executing on mnemosyne06.ecn.purdue.edu, pid 6283
command line: ./build/X86/gem5.fast -d ./parsec_results/parsec_noci_largemem_18GHz_500kB/100m/ferret/cmesh_x_noci/ configs/auto_top/auto_top_fs.py -I 100000000 --benchmark_parsec ferret -r 1 --checkpoint-dir ./parsec_checkpoints/largemem/ferret --router_map_file configs/topologies/paper_solutions/cmesh_x_noci.map --flat_vn_map_file configs/topologies/vn_maps/cmesh_x_noci_naive_hops.vn --flat_nr_map_file configs/topologies/nr_list/cmesh_x_noci_naive.nrl --topology FS_NoCI_EscapeVirtualNetworks --noi_routers 20 --noc_clk 1.8GHz --sys-clock 1.8GHz --ruby-clock 1.8GHz --noi_clk 3.6GHz --num-cpus 64 --mem_or_coh mem --num-dirs 16 --num-l2caches 64 --l2_size 500kB --num_chiplets 4 --mem-size 32GB --caches --ruby --network garnet --kernel parsec_disk_image/vmlinux-4.4.186 --disk-image parsec_disk_image/x86-parsec --cpu-type X86O3CPU --restore-with-cpu X86O3CPU --routing-algorithm 2 --use_escape_vns --vcs-per-vnet 10 --evn_deadlock_partition 1 --evn_n_deadlock_free 1 --evn_min_n_deadlock_free 9

info: Standard input is not a terminal, disabling listeners.
l1_caches(64)=[<m5.objects.L1Cache_Controller.L1Cache_Controller object at 0x7f48e4820630>, <m5.objects.L1Cache_Controller.L1Cache_Controller object at 0x7f48e48286a0>, <m5.objects.L1Cache_Controller.L1Cache_Controller object at 0x7f48e48306a0>, <m5.objects.L1Cache_Controller.L1Cache_Controller object at 0x7f48e483b6a0>, <m5.objects.L1Cache_Controller.L1Cache_Controller object at 0x7f48e48436a0>, <m5.objects.L1Cache_Controller.L1Cache_Controller object at 0x7f48e47cd6a0>, <m5.objects.L1Cache_Controller.L1Cache_Controller object at 0x7f48e47d56a0>, <m5.objects.L1Cache_Controller.L1Cache_Controller object at 0x7f48e47df6a0>, <m5.objects.L1Cache_Controller.L1Cache_Controller object at 0x7f48e47e86a0>, <m5.objects.L1Cache_Controller.L1Cache_Controller object at 0x7f48e47f06a0>, <m5.objects.L1Cache_Controller.L1Cache_Controller object at 0x7f48e47fa6a0>, <m5.objects.L1Cache_Controller.L1Cache_Controller object at 0x7f48e48026a0>, <m5.objects.L1Cache_Controller.L1Cache_Controller object at 0x7f48e478c6a0>, <m5.objects.L1Cache_Controller.L1Cache_Controller object at 0x7f48e47946a0>, <m5.objects.L1Cache_Controller.L1Cache_Controller object at 0x7f48e479e6a0>, <m5.objects.L1Cache_Controller.L1Cache_Controller object at 0x7f48e47a66a0>, <m5.objects.L1Cache_Controller.L1Cache_Controller object at 0x7f48e47b16a0>, <m5.objects.L1Cache_Controller.L1Cache_Controller object at 0x7f48e47b96a0>, <m5.objects.L1Cache_Controller.L1Cache_Controller object at 0x7f48e47c26a0>, <m5.objects.L1Cache_Controller.L1Cache_Controller object at 0x7f48e474b6a0>, <m5.objects.L1Cache_Controller.L1Cache_Controller object at 0x7f48e47536a0>, <m5.objects.L1Cache_Controller.L1Cache_Controller object at 0x7f48e475d6a0>, <m5.objects.L1Cache_Controller.L1Cache_Controller object at 0x7f48e47666a0>, <m5.objects.L1Cache_Controller.L1Cache_Controller object at 0x7f48e47706a0>, <m5.objects.L1Cache_Controller.L1Cache_Controller object at 0x7f48e47786a0>, <m5.objects.L1Cache_Controller.L1Cache_Controller object at 0x7f48e47826a0>, <m5.objects.L1Cache_Controller.L1Cache_Controller object at 0x7f48e470b6a0>, <m5.objects.L1Cache_Controller.L1Cache_Controller object at 0x7f48e47146a0>, <m5.objects.L1Cache_Controller.L1Cache_Controller object at 0x7f48e471e6a0>, <m5.objects.L1Cache_Controller.L1Cache_Controller object at 0x7f48e47276a0>, <m5.objects.L1Cache_Controller.L1Cache_Controller object at 0x7f48e47306a0>, <m5.objects.L1Cache_Controller.L1Cache_Controller object at 0x7f48e47386a0>, <m5.objects.L1Cache_Controller.L1Cache_Controller object at 0x7f48e47426a0>, <m5.objects.L1Cache_Controller.L1Cache_Controller object at 0x7f48e46ca6a0>, <m5.objects.L1Cache_Controller.L1Cache_Controller object at 0x7f48e46d36a0>, <m5.objects.L1Cache_Controller.L1Cache_Controller object at 0x7f48e46dc6a0>, <m5.objects.L1Cache_Controller.L1Cache_Controller object at 0x7f48e46e66a0>, <m5.objects.L1Cache_Controller.L1Cache_Controller object at 0x7f48e46ef6a0>, <m5.objects.L1Cache_Controller.L1Cache_Controller object at 0x7f48e46f86a0>, <m5.objects.L1Cache_Controller.L1Cache_Controller object at 0x7f48e47016a0>, <m5.objects.L1Cache_Controller.L1Cache_Controller object at 0x7f48e468b6a0>, <m5.objects.L1Cache_Controller.L1Cache_Controller object at 0x7f48e46946a0>, <m5.objects.L1Cache_Controller.L1Cache_Controller object at 0x7f48e469c6a0>, <m5.objects.L1Cache_Controller.L1Cache_Controller object at 0x7f48e46a56a0>, <m5.objects.L1Cache_Controller.L1Cache_Controller object at 0x7f48e46ae6a0>, <m5.objects.L1Cache_Controller.L1Cache_Controller object at 0x7f48e46b76a0>, <m5.objects.L1Cache_Controller.L1Cache_Controller object at 0x7f48e46c06a0>, <m5.objects.L1Cache_Controller.L1Cache_Controller object at 0x7f48e46496a0>, <m5.objects.L1Cache_Controller.L1Cache_Controller object at 0x7f48e46536a0>, <m5.objects.L1Cache_Controller.L1Cache_Controller object at 0x7f48e465c6a0>, <m5.objects.L1Cache_Controller.L1Cache_Controller object at 0x7f48e46656a0>, <m5.objects.L1Cache_Controller.L1Cache_Controller object at 0x7f48e466f6a0>, <m5.objects.L1Cache_Controller.L1Cache_Controller object at 0x7f48e46786a0>, <m5.objects.L1Cache_Controller.L1Cache_Controller object at 0x7f48e46816a0>, <m5.objects.L1Cache_Controller.L1Cache_Controller object at 0x7f48e460a6a0>, <m5.objects.L1Cache_Controller.L1Cache_Controller object at 0x7f48e46136a0>, <m5.objects.L1Cache_Controller.L1Cache_Controller object at 0x7f48e461c6a0>, <m5.objects.L1Cache_Controller.L1Cache_Controller object at 0x7f48e46256a0>, <m5.objects.L1Cache_Controller.L1Cache_Controller object at 0x7f48e462e6a0>, <m5.objects.L1Cache_Controller.L1Cache_Controller object at 0x7f48e46366a0>, <m5.objects.L1Cache_Controller.L1Cache_Controller object at 0x7f48e46406a0>, <m5.objects.L1Cache_Controller.L1Cache_Controller object at 0x7f48e46486a0>, <m5.objects.L1Cache_Controller.L1Cache_Controller object at 0x7f48e45d26a0>, <m5.objects.L1Cache_Controller.L1Cache_Controller object at 0x7f48e45da6a0>]
l2_caches(64)=[<m5.objects.L2Cache_Controller.L2Cache_Controller object at 0x7f48e45e5390>, <m5.objects.L2Cache_Controller.L2Cache_Controller object at 0x7f48e45e5dd8>, <m5.objects.L2Cache_Controller.L2Cache_Controller object at 0x7f48e45ee860>, <m5.objects.L2Cache_Controller.L2Cache_Controller object at 0x7f48e45f62e8>, <m5.objects.L2Cache_Controller.L2Cache_Controller object at 0x7f48e45f6d30>, <m5.objects.L2Cache_Controller.L2Cache_Controller object at 0x7f48e45ff7b8>, <m5.objects.L2Cache_Controller.L2Cache_Controller object at 0x7f48e4608240>, <m5.objects.L2Cache_Controller.L2Cache_Controller object at 0x7f48e4608c88>, <m5.objects.L2Cache_Controller.L2Cache_Controller object at 0x7f48e4591710>, <m5.objects.L2Cache_Controller.L2Cache_Controller object at 0x7f48e459a198>, <m5.objects.L2Cache_Controller.L2Cache_Controller object at 0x7f48e459abe0>, <m5.objects.L2Cache_Controller.L2Cache_Controller object at 0x7f48e45a2668>, <m5.objects.L2Cache_Controller.L2Cache_Controller object at 0x7f48e45ac0f0>, <m5.objects.L2Cache_Controller.L2Cache_Controller object at 0x7f48e45acb38>, <m5.objects.L2Cache_Controller.L2Cache_Controller object at 0x7f48e45b45c0>, <m5.objects.L2Cache_Controller.L2Cache_Controller object at 0x7f48e45be048>, <m5.objects.L2Cache_Controller.L2Cache_Controller object at 0x7f48e45bea90>, <m5.objects.L2Cache_Controller.L2Cache_Controller object at 0x7f48e45c7518>, <m5.objects.L2Cache_Controller.L2Cache_Controller object at 0x7f48e45c7f60>, <m5.objects.L2Cache_Controller.L2Cache_Controller object at 0x7f48e45509e8>, <m5.objects.L2Cache_Controller.L2Cache_Controller object at 0x7f48e4558470>, <m5.objects.L2Cache_Controller.L2Cache_Controller object at 0x7f48e4558eb8>, <m5.objects.L2Cache_Controller.L2Cache_Controller object at 0x7f48e4561940>, <m5.objects.L2Cache_Controller.L2Cache_Controller object at 0x7f48e456a3c8>, <m5.objects.L2Cache_Controller.L2Cache_Controller object at 0x7f48e456ae10>, <m5.objects.L2Cache_Controller.L2Cache_Controller object at 0x7f48e4574898>, <m5.objects.L2Cache_Controller.L2Cache_Controller object at 0x7f48e457d320>, <m5.objects.L2Cache_Controller.L2Cache_Controller object at 0x7f48e457dd68>, <m5.objects.L2Cache_Controller.L2Cache_Controller object at 0x7f48e45867f0>, <m5.objects.L2Cache_Controller.L2Cache_Controller object at 0x7f48e450f278>, <m5.objects.L2Cache_Controller.L2Cache_Controller object at 0x7f48e450fcc0>, <m5.objects.L2Cache_Controller.L2Cache_Controller object at 0x7f48e4518748>, <m5.objects.L2Cache_Controller.L2Cache_Controller object at 0x7f48e45211d0>, <m5.objects.L2Cache_Controller.L2Cache_Controller object at 0x7f48e4521c18>, <m5.objects.L2Cache_Controller.L2Cache_Controller object at 0x7f48e452a6a0>, <m5.objects.L2Cache_Controller.L2Cache_Controller object at 0x7f48e4533128>, <m5.objects.L2Cache_Controller.L2Cache_Controller object at 0x7f48e4533b70>, <m5.objects.L2Cache_Controller.L2Cache_Controller object at 0x7f48e453c5f8>, <m5.objects.L2Cache_Controller.L2Cache_Controller object at 0x7f48e4544080>, <m5.objects.L2Cache_Controller.L2Cache_Controller object at 0x7f48e4544ac8>, <m5.objects.L2Cache_Controller.L2Cache_Controller object at 0x7f48e44ce550>, <m5.objects.L2Cache_Controller.L2Cache_Controller object at 0x7f48e44cef98>, <m5.objects.L2Cache_Controller.L2Cache_Controller object at 0x7f48e44d8a20>, <m5.objects.L2Cache_Controller.L2Cache_Controller object at 0x7f48e44e14a8>, <m5.objects.L2Cache_Controller.L2Cache_Controller object at 0x7f48e44e1ef0>, <m5.objects.L2Cache_Controller.L2Cache_Controller object at 0x7f48e44ea978>, <m5.objects.L2Cache_Controller.L2Cache_Controller object at 0x7f48e44f2400>, <m5.objects.L2Cache_Controller.L2Cache_Controller object at 0x7f48e44f2e48>, <m5.objects.L2Cache_Controller.L2Cache_Controller object at 0x7f48e44fc8d0>, <m5.objects.L2Cache_Controller.L2Cache_Controller object at 0x7f48e4504358>, <m5.objects.L2Cache_Controller.L2Cache_Controller object at 0x7f48e4504da0>, <m5.objects.L2Cache_Controller.L2Cache_Controller object at 0x7f48e448d828>, <m5.objects.L2Cache_Controller.L2Cache_Controller object at 0x7f48e44952b0>, <m5.objects.L2Cache_Controller.L2Cache_Controller object at 0x7f48e4495cf8>, <m5.objects.L2Cache_Controller.L2Cache_Controller object at 0x7f48e449f780>, <m5.objects.L2Cache_Controller.L2Cache_Controller object at 0x7f48e44a8208>, <m5.objects.L2Cache_Controller.L2Cache_Controller object at 0x7f48e44a8c50>, <m5.objects.L2Cache_Controller.L2Cache_Controller object at 0x7f48e44b16d8>, <m5.objects.L2Cache_Controller.L2Cache_Controller object at 0x7f48e5567080>, <m5.objects.L2Cache_Controller.L2Cache_Controller object at 0x7f48e5567b38>, <m5.objects.L2Cache_Controller.L2Cache_Controller object at 0x7f48e44c05c0>, <m5.objects.L2Cache_Controller.L2Cache_Controller object at 0x7f48e444a048>, <m5.objects.L2Cache_Controller.L2Cache_Controller object at 0x7f48e444aa90>, <m5.objects.L2Cache_Controller.L2Cache_Controller object at 0x7f48e4453518>]
dirs(16)=[<m5.objects.Directory_Controller.Directory_Controller object at 0x7f48e4453e48>, <m5.objects.Directory_Controller.Directory_Controller object at 0x7f48e445a0b8>, <m5.objects.Directory_Controller.Directory_Controller object at 0x7f48e445a2e8>, <m5.objects.Directory_Controller.Directory_Controller object at 0x7f48e445a518>, <m5.objects.Directory_Controller.Directory_Controller object at 0x7f48e445a748>, <m5.objects.Directory_Controller.Directory_Controller object at 0x7f48e445a978>, <m5.objects.Directory_Controller.Directory_Controller object at 0x7f48e445aba8>, <m5.objects.Directory_Controller.Directory_Controller object at 0x7f48e445add8>, <m5.objects.Directory_Controller.Directory_Controller object at 0x7f48e4467048>, <m5.objects.Directory_Controller.Directory_Controller object at 0x7f48e4467278>, <m5.objects.Directory_Controller.Directory_Controller object at 0x7f48e44674a8>, <m5.objects.Directory_Controller.Directory_Controller object at 0x7f48e44676d8>, <m5.objects.Directory_Controller.Directory_Controller object at 0x7f48e4467908>, <m5.objects.Directory_Controller.Directory_Controller object at 0x7f48e4467b38>, <m5.objects.Directory_Controller.Directory_Controller object at 0x7f48e4467d68>, <m5.objects.Directory_Controller.Directory_Controller object at 0x7f48e4467f98>]
dmas(2)=[<m5.objects.DMA_Controller.DMA_Controller object at 0x7f48e4419eb8>, <m5.objects.DMA_Controller.DMA_Controller object at 0x7f48e4422518>]
others(0)=[]
ingesting configs/topologies/nr_list/cmesh_x_noci_naive.nrl
ingesting configs/topologies/vn_maps/cmesh_x_noci_naive_hops.vn
warn: Physical memory size specified is 32GB which is greater than 3GB.  Twice the number of memory controllers would be created.
