FileNotFoundError: [Errno 2] No such file or directory: 'configs/topologies/vn_maps/cmesh_x_noci_naive_hops.vn'

At:
  /home/yara/mithuna2/green456/netsmith_autotop/auto_top_gem5/configs/topologies/FS_NoCI_EscapeVirtualNetworks.py(472): ingest_flat_map
  /home/yara/mithuna2/green456/netsmith_autotop/auto_top_gem5/configs/topologies/FS_NoCI_EscapeVirtualNetworks.py(108): makeTopology
  /home/yara/mithuna2/green456/netsmith_autotop/auto_top_gem5/configs/ruby/Ruby.py(220): create_system
  configs/auto_top/auto_top_fs.py(173): build_test_system
  configs/auto_top/auto_top_fs.py(443): <module>
  build/X86/python/m5/main.py(434): main
gem5 Simulator System.  https://www.gem5.org
gem5 is copyrighted software; use the --copyright option for details.

gem5 version 22.0.0.2
gem5 compiled Mar 20 2023 15:13:00
gem5 started Mar 20 2023 15:53:25
gem5 executing on mnemosyne09.ecn.purdue.edu, pid 6731
command line: ./build/X86/gem5.fast -d ./parsec_results/parsec_noci_largemem_18GHz_500kB/100m/freqmine/cmesh_x_noci/ configs/auto_top/auto_top_fs.py -I 100000000 --benchmark_parsec freqmine -r 1 --checkpoint-dir ./parsec_checkpoints/largemem/freqmine --router_map_file configs/topologies/paper_solutions/cmesh_x_noci.map --flat_vn_map_file configs/topologies/vn_maps/cmesh_x_noci_naive_hops.vn --flat_nr_map_file configs/topologies/nr_list/cmesh_x_noci_naive.nrl --topology FS_NoCI_EscapeVirtualNetworks --noi_routers 20 --noc_clk 1.8GHz --sys-clock 1.8GHz --ruby-clock 1.8GHz --noi_clk 3.6GHz --num-cpus 64 --mem_or_coh mem --num-dirs 16 --num-l2caches 64 --l2_size 500kB --num_chiplets 4 --mem-size 32GB --caches --ruby --network garnet --kernel parsec_disk_image/vmlinux-4.4.186 --disk-image parsec_disk_image/x86-parsec --cpu-type X86O3CPU --restore-with-cpu X86O3CPU --routing-algorithm 2 --use_escape_vns --vcs-per-vnet 10 --evn_deadlock_partition 1 --evn_n_deadlock_free 1 --evn_min_n_deadlock_free 9

info: Standard input is not a terminal, disabling listeners.
l1_caches(64)=[<m5.objects.L1Cache_Controller.L1Cache_Controller object at 0x7f6c29ab3668>, <m5.objects.L1Cache_Controller.L1Cache_Controller object at 0x7f6c29abc6d8>, <m5.objects.L1Cache_Controller.L1Cache_Controller object at 0x7f6c29ac46d8>, <m5.objects.L1Cache_Controller.L1Cache_Controller object at 0x7f6c29acf6d8>, <m5.objects.L1Cache_Controller.L1Cache_Controller object at 0x7f6c29ad76d8>, <m5.objects.L1Cache_Controller.L1Cache_Controller object at 0x7f6c29a606d8>, <m5.objects.L1Cache_Controller.L1Cache_Controller object at 0x7f6c29a696d8>, <m5.objects.L1Cache_Controller.L1Cache_Controller object at 0x7f6c29a726d8>, <m5.objects.L1Cache_Controller.L1Cache_Controller object at 0x7f6c29a7c6d8>, <m5.objects.L1Cache_Controller.L1Cache_Controller object at 0x7f6c29a846d8>, <m5.objects.L1Cache_Controller.L1Cache_Controller object at 0x7f6c29a8e6d8>, <m5.objects.L1Cache_Controller.L1Cache_Controller object at 0x7f6c29a966d8>, <m5.objects.L1Cache_Controller.L1Cache_Controller object at 0x7f6c29a206d8>, <m5.objects.L1Cache_Controller.L1Cache_Controller object at 0x7f6c29a286d8>, <m5.objects.L1Cache_Controller.L1Cache_Controller object at 0x7f6c29a326d8>, <m5.objects.L1Cache_Controller.L1Cache_Controller object at 0x7f6c29a3a6d8>, <m5.objects.L1Cache_Controller.L1Cache_Controller object at 0x7f6c29a456d8>, <m5.objects.L1Cache_Controller.L1Cache_Controller object at 0x7f6c29a4d6d8>, <m5.objects.L1Cache_Controller.L1Cache_Controller object at 0x7f6c29a556d8>, <m5.objects.L1Cache_Controller.L1Cache_Controller object at 0x7f6c299df6d8>, <m5.objects.L1Cache_Controller.L1Cache_Controller object at 0x7f6c299e76d8>, <m5.objects.L1Cache_Controller.L1Cache_Controller object at 0x7f6c299f16d8>, <m5.objects.L1Cache_Controller.L1Cache_Controller object at 0x7f6c299fa6d8>, <m5.objects.L1Cache_Controller.L1Cache_Controller object at 0x7f6c29a046d8>, <m5.objects.L1Cache_Controller.L1Cache_Controller object at 0x7f6c29a0d6d8>, <m5.objects.L1Cache_Controller.L1Cache_Controller object at 0x7f6c29a166d8>, <m5.objects.L1Cache_Controller.L1Cache_Controller object at 0x7f6c2999f6d8>, <m5.objects.L1Cache_Controller.L1Cache_Controller object at 0x7f6c299a86d8>, <m5.objects.L1Cache_Controller.L1Cache_Controller object at 0x7f6c299b26d8>, <m5.objects.L1Cache_Controller.L1Cache_Controller object at 0x7f6c299ba6d8>, <m5.objects.L1Cache_Controller.L1Cache_Controller object at 0x7f6c299c46d8>, <m5.objects.L1Cache_Controller.L1Cache_Controller object at 0x7f6c299cc6d8>, <m5.objects.L1Cache_Controller.L1Cache_Controller object at 0x7f6c299d66d8>, <m5.objects.L1Cache_Controller.L1Cache_Controller object at 0x7f6c2995e6d8>, <m5.objects.L1Cache_Controller.L1Cache_Controller object at 0x7f6c299676d8>, <m5.objects.L1Cache_Controller.L1Cache_Controller object at 0x7f6c299706d8>, <m5.objects.L1Cache_Controller.L1Cache_Controller object at 0x7f6c2997a6d8>, <m5.objects.L1Cache_Controller.L1Cache_Controller object at 0x7f6c299836d8>, <m5.objects.L1Cache_Controller.L1Cache_Controller object at 0x7f6c2998c6d8>, <m5.objects.L1Cache_Controller.L1Cache_Controller object at 0x7f6c299956d8>, <m5.objects.L1Cache_Controller.L1Cache_Controller object at 0x7f6c2991e6d8>, <m5.objects.L1Cache_Controller.L1Cache_Controller object at 0x7f6c299286d8>, <m5.objects.L1Cache_Controller.L1Cache_Controller object at 0x7f6c299316d8>, <m5.objects.L1Cache_Controller.L1Cache_Controller object at 0x7f6c2993a6d8>, <m5.objects.L1Cache_Controller.L1Cache_Controller object at 0x7f6c299436d8>, <m5.objects.L1Cache_Controller.L1Cache_Controller object at 0x7f6c2994c6d8>, <m5.objects.L1Cache_Controller.L1Cache_Controller object at 0x7f6c299556d8>, <m5.objects.L1Cache_Controller.L1Cache_Controller object at 0x7f6c298de6d8>, <m5.objects.L1Cache_Controller.L1Cache_Controller object at 0x7f6c298e76d8>, <m5.objects.L1Cache_Controller.L1Cache_Controller object at 0x7f6c298f06d8>, <m5.objects.L1Cache_Controller.L1Cache_Controller object at 0x7f6c298f96d8>, <m5.objects.L1Cache_Controller.L1Cache_Controller object at 0x7f6c299026d8>, <m5.objects.L1Cache_Controller.L1Cache_Controller object at 0x7f6c2990c6d8>, <m5.objects.L1Cache_Controller.L1Cache_Controller object at 0x7f6c299156d8>, <m5.objects.L1Cache_Controller.L1Cache_Controller object at 0x7f6c2989e6d8>, <m5.objects.L1Cache_Controller.L1Cache_Controller object at 0x7f6c298a76d8>, <m5.objects.L1Cache_Controller.L1Cache_Controller object at 0x7f6c298b06d8>, <m5.objects.L1Cache_Controller.L1Cache_Controller object at 0x7f6c298b96d8>, <m5.objects.L1Cache_Controller.L1Cache_Controller object at 0x7f6c298c26d8>, <m5.objects.L1Cache_Controller.L1Cache_Controller object at 0x7f6c298ca6d8>, <m5.objects.L1Cache_Controller.L1Cache_Controller object at 0x7f6c298d46d8>, <m5.objects.L1Cache_Controller.L1Cache_Controller object at 0x7f6c298dc6d8>, <m5.objects.L1Cache_Controller.L1Cache_Controller object at 0x7f6c298656d8>, <m5.objects.L1Cache_Controller.L1Cache_Controller object at 0x7f6c2986e6d8>]
l2_caches(64)=[<m5.objects.L2Cache_Controller.L2Cache_Controller object at 0x7f6c298793c8>, <m5.objects.L2Cache_Controller.L2Cache_Controller object at 0x7f6c29879e10>, <m5.objects.L2Cache_Controller.L2Cache_Controller object at 0x7f6c29882898>, <m5.objects.L2Cache_Controller.L2Cache_Controller object at 0x7f6c2988a320>, <m5.objects.L2Cache_Controller.L2Cache_Controller object at 0x7f6c2988ad68>, <m5.objects.L2Cache_Controller.L2Cache_Controller object at 0x7f6c298937f0>, <m5.objects.L2Cache_Controller.L2Cache_Controller object at 0x7f6c2989c278>, <m5.objects.L2Cache_Controller.L2Cache_Controller object at 0x7f6c2989ccc0>, <m5.objects.L2Cache_Controller.L2Cache_Controller object at 0x7f6c29825748>, <m5.objects.L2Cache_Controller.L2Cache_Controller object at 0x7f6c2982e1d0>, <m5.objects.L2Cache_Controller.L2Cache_Controller object at 0x7f6c2982ec18>, <m5.objects.L2Cache_Controller.L2Cache_Controller object at 0x7f6c298366a0>, <m5.objects.L2Cache_Controller.L2Cache_Controller object at 0x7f6c2983f128>, <m5.objects.L2Cache_Controller.L2Cache_Controller object at 0x7f6c2983fb70>, <m5.objects.L2Cache_Controller.L2Cache_Controller object at 0x7f6c298485f8>, <m5.objects.L2Cache_Controller.L2Cache_Controller object at 0x7f6c29852080>, <m5.objects.L2Cache_Controller.L2Cache_Controller object at 0x7f6c29852ac8>, <m5.objects.L2Cache_Controller.L2Cache_Controller object at 0x7f6c2985b550>, <m5.objects.L2Cache_Controller.L2Cache_Controller object at 0x7f6c2985bf98>, <m5.objects.L2Cache_Controller.L2Cache_Controller object at 0x7f6c297e4a20>, <m5.objects.L2Cache_Controller.L2Cache_Controller object at 0x7f6c297ec4a8>, <m5.objects.L2Cache_Controller.L2Cache_Controller object at 0x7f6c297ecef0>, <m5.objects.L2Cache_Controller.L2Cache_Controller object at 0x7f6c297f5978>, <m5.objects.L2Cache_Controller.L2Cache_Controller object at 0x7f6c297ff400>, <m5.objects.L2Cache_Controller.L2Cache_Controller object at 0x7f6c297ffe48>, <m5.objects.L2Cache_Controller.L2Cache_Controller object at 0x7f6c298078d0>, <m5.objects.L2Cache_Controller.L2Cache_Controller object at 0x7f6c29810358>, <m5.objects.L2Cache_Controller.L2Cache_Controller object at 0x7f6c29810da0>, <m5.objects.L2Cache_Controller.L2Cache_Controller object at 0x7f6c2981a828>, <m5.objects.L2Cache_Controller.L2Cache_Controller object at 0x7f6c297a32b0>, <m5.objects.L2Cache_Controller.L2Cache_Controller object at 0x7f6c297a3cf8>, <m5.objects.L2Cache_Controller.L2Cache_Controller object at 0x7f6c297ac780>, <m5.objects.L2Cache_Controller.L2Cache_Controller object at 0x7f6c297b5208>, <m5.objects.L2Cache_Controller.L2Cache_Controller object at 0x7f6c297b5c50>, <m5.objects.L2Cache_Controller.L2Cache_Controller object at 0x7f6c297be6d8>, <m5.objects.L2Cache_Controller.L2Cache_Controller object at 0x7f6c297c7160>, <m5.objects.L2Cache_Controller.L2Cache_Controller object at 0x7f6c297c7ba8>, <m5.objects.L2Cache_Controller.L2Cache_Controller object at 0x7f6c297cf630>, <m5.objects.L2Cache_Controller.L2Cache_Controller object at 0x7f6c297d90b8>, <m5.objects.L2Cache_Controller.L2Cache_Controller object at 0x7f6c297d9b00>, <m5.objects.L2Cache_Controller.L2Cache_Controller object at 0x7f6c29762588>, <m5.objects.L2Cache_Controller.L2Cache_Controller object at 0x7f6c29762fd0>, <m5.objects.L2Cache_Controller.L2Cache_Controller object at 0x7f6c2976ca58>, <m5.objects.L2Cache_Controller.L2Cache_Controller object at 0x7f6c297754e0>, <m5.objects.L2Cache_Controller.L2Cache_Controller object at 0x7f6c29775f28>, <m5.objects.L2Cache_Controller.L2Cache_Controller object at 0x7f6c2977d9b0>, <m5.objects.L2Cache_Controller.L2Cache_Controller object at 0x7f6c29786438>, <m5.objects.L2Cache_Controller.L2Cache_Controller object at 0x7f6c29786e80>, <m5.objects.L2Cache_Controller.L2Cache_Controller object at 0x7f6c2978f908>, <m5.objects.L2Cache_Controller.L2Cache_Controller object at 0x7f6c29797390>, <m5.objects.L2Cache_Controller.L2Cache_Controller object at 0x7f6c29797dd8>, <m5.objects.L2Cache_Controller.L2Cache_Controller object at 0x7f6c29721860>, <m5.objects.L2Cache_Controller.L2Cache_Controller object at 0x7f6c297292e8>, <m5.objects.L2Cache_Controller.L2Cache_Controller object at 0x7f6c29729d30>, <m5.objects.L2Cache_Controller.L2Cache_Controller object at 0x7f6c297337b8>, <m5.objects.L2Cache_Controller.L2Cache_Controller object at 0x7f6c2973c240>, <m5.objects.L2Cache_Controller.L2Cache_Controller object at 0x7f6c2973cc88>, <m5.objects.L2Cache_Controller.L2Cache_Controller object at 0x7f6c29744710>, <m5.objects.L2Cache_Controller.L2Cache_Controller object at 0x7f6c2a7fb0b8>, <m5.objects.L2Cache_Controller.L2Cache_Controller object at 0x7f6c2a7fbb70>, <m5.objects.L2Cache_Controller.L2Cache_Controller object at 0x7f6c297545f8>, <m5.objects.L2Cache_Controller.L2Cache_Controller object at 0x7f6c296de080>, <m5.objects.L2Cache_Controller.L2Cache_Controller object at 0x7f6c296deac8>, <m5.objects.L2Cache_Controller.L2Cache_Controller object at 0x7f6c296e7550>]
dirs(16)=[<m5.objects.Directory_Controller.Directory_Controller object at 0x7f6c296e7e80>, <m5.objects.Directory_Controller.Directory_Controller object at 0x7f6c296ee0f0>, <m5.objects.Directory_Controller.Directory_Controller object at 0x7f6c296ee320>, <m5.objects.Directory_Controller.Directory_Controller object at 0x7f6c296ee550>, <m5.objects.Directory_Controller.Directory_Controller object at 0x7f6c296ee780>, <m5.objects.Directory_Controller.Directory_Controller object at 0x7f6c296ee9b0>, <m5.objects.Directory_Controller.Directory_Controller object at 0x7f6c296eebe0>, <m5.objects.Directory_Controller.Directory_Controller object at 0x7f6c296eee10>, <m5.objects.Directory_Controller.Directory_Controller object at 0x7f6c296fb080>, <m5.objects.Directory_Controller.Directory_Controller object at 0x7f6c296fb2b0>, <m5.objects.Directory_Controller.Directory_Controller object at 0x7f6c296fb4e0>, <m5.objects.Directory_Controller.Directory_Controller object at 0x7f6c296fb710>, <m5.objects.Directory_Controller.Directory_Controller object at 0x7f6c296fb940>, <m5.objects.Directory_Controller.Directory_Controller object at 0x7f6c296fbb70>, <m5.objects.Directory_Controller.Directory_Controller object at 0x7f6c296fbda0>, <m5.objects.Directory_Controller.Directory_Controller object at 0x7f6c296fbfd0>]
dmas(2)=[<m5.objects.DMA_Controller.DMA_Controller object at 0x7f6c296adef0>, <m5.objects.DMA_Controller.DMA_Controller object at 0x7f6c296b6550>]
others(0)=[]
ingesting configs/topologies/nr_list/cmesh_x_noci_naive.nrl
ingesting configs/topologies/vn_maps/cmesh_x_noci_naive_hops.vn
warn: Physical memory size specified is 32GB which is greater than 3GB.  Twice the number of memory controllers would be created.
