FileNotFoundError: [Errno 2] No such file or directory: 'configs/topologies/vn_maps/cmesh_x_noci_naive_hops.vn'

At:
  /home/yara/mithuna2/green456/netsmith_autotop/auto_top_gem5/configs/topologies/FS_NoCI_EscapeVirtualNetworks.py(472): ingest_flat_map
  /home/yara/mithuna2/green456/netsmith_autotop/auto_top_gem5/configs/topologies/FS_NoCI_EscapeVirtualNetworks.py(108): makeTopology
  /home/yara/mithuna2/green456/netsmith_autotop/auto_top_gem5/configs/ruby/Ruby.py(220): create_system
  configs/auto_top/auto_top_fs.py(173): build_test_system
  configs/auto_top/auto_top_fs.py(443): <module>
  build/X86/python/m5/main.py(434): main
gem5 Simulator System.  https://www.gem5.org
gem5 is copyrighted software; use the --copyright option for details.

gem5 version 22.0.0.2
gem5 compiled Mar 20 2023 15:13:00
gem5 started Mar 20 2023 15:53:25
gem5 executing on mnemosyne18.ecn.purdue.edu, pid 6899
command line: ./build/X86/gem5.fast -d ./parsec_results/parsec_noci_largemem_18GHz_500kB/100m/raytrace/cmesh_x_noci/ configs/auto_top/auto_top_fs.py -I 100000000 --benchmark_parsec raytrace -r 1 --checkpoint-dir ./parsec_checkpoints/largemem/raytrace --router_map_file configs/topologies/paper_solutions/cmesh_x_noci.map --flat_vn_map_file configs/topologies/vn_maps/cmesh_x_noci_naive_hops.vn --flat_nr_map_file configs/topologies/nr_list/cmesh_x_noci_naive.nrl --topology FS_NoCI_EscapeVirtualNetworks --noi_routers 20 --noc_clk 1.8GHz --sys-clock 1.8GHz --ruby-clock 1.8GHz --noi_clk 3.6GHz --num-cpus 64 --mem_or_coh mem --num-dirs 16 --num-l2caches 64 --l2_size 500kB --num_chiplets 4 --mem-size 32GB --caches --ruby --network garnet --kernel parsec_disk_image/vmlinux-4.4.186 --disk-image parsec_disk_image/x86-parsec --cpu-type X86O3CPU --restore-with-cpu X86O3CPU --routing-algorithm 2 --use_escape_vns --vcs-per-vnet 10 --evn_deadlock_partition 1 --evn_n_deadlock_free 1 --evn_min_n_deadlock_free 9

info: Standard input is not a terminal, disabling listeners.
l1_caches(64)=[<m5.objects.L1Cache_Controller.L1Cache_Controller object at 0x7f94bc6d9668>, <m5.objects.L1Cache_Controller.L1Cache_Controller object at 0x7f94bc6e26d8>, <m5.objects.L1Cache_Controller.L1Cache_Controller object at 0x7f94bc6ea6d8>, <m5.objects.L1Cache_Controller.L1Cache_Controller object at 0x7f94bc6f56d8>, <m5.objects.L1Cache_Controller.L1Cache_Controller object at 0x7f94bc6fd6d8>, <m5.objects.L1Cache_Controller.L1Cache_Controller object at 0x7f94bc6876d8>, <m5.objects.L1Cache_Controller.L1Cache_Controller object at 0x7f94bc68f6d8>, <m5.objects.L1Cache_Controller.L1Cache_Controller object at 0x7f94bc6986d8>, <m5.objects.L1Cache_Controller.L1Cache_Controller object at 0x7f94bc6a26d8>, <m5.objects.L1Cache_Controller.L1Cache_Controller object at 0x7f94bc6aa6d8>, <m5.objects.L1Cache_Controller.L1Cache_Controller object at 0x7f94bc6b46d8>, <m5.objects.L1Cache_Controller.L1Cache_Controller object at 0x7f94bc6bc6d8>, <m5.objects.L1Cache_Controller.L1Cache_Controller object at 0x7f94bc6466d8>, <m5.objects.L1Cache_Controller.L1Cache_Controller object at 0x7f94bc64e6d8>, <m5.objects.L1Cache_Controller.L1Cache_Controller object at 0x7f94bc6586d8>, <m5.objects.L1Cache_Controller.L1Cache_Controller object at 0x7f94bc6606d8>, <m5.objects.L1Cache_Controller.L1Cache_Controller object at 0x7f94bc66b6d8>, <m5.objects.L1Cache_Controller.L1Cache_Controller object at 0x7f94bc6736d8>, <m5.objects.L1Cache_Controller.L1Cache_Controller object at 0x7f94bc67b6d8>, <m5.objects.L1Cache_Controller.L1Cache_Controller object at 0x7f94bc6056d8>, <m5.objects.L1Cache_Controller.L1Cache_Controller object at 0x7f94bc60d6d8>, <m5.objects.L1Cache_Controller.L1Cache_Controller object at 0x7f94bc6176d8>, <m5.objects.L1Cache_Controller.L1Cache_Controller object at 0x7f94bc6206d8>, <m5.objects.L1Cache_Controller.L1Cache_Controller object at 0x7f94bc62a6d8>, <m5.objects.L1Cache_Controller.L1Cache_Controller object at 0x7f94bc6336d8>, <m5.objects.L1Cache_Controller.L1Cache_Controller object at 0x7f94bc63c6d8>, <m5.objects.L1Cache_Controller.L1Cache_Controller object at 0x7f94bc5c56d8>, <m5.objects.L1Cache_Controller.L1Cache_Controller object at 0x7f94bc5ce6d8>, <m5.objects.L1Cache_Controller.L1Cache_Controller object at 0x7f94bc5d86d8>, <m5.objects.L1Cache_Controller.L1Cache_Controller object at 0x7f94bc5e16d8>, <m5.objects.L1Cache_Controller.L1Cache_Controller object at 0x7f94bc5ea6d8>, <m5.objects.L1Cache_Controller.L1Cache_Controller object at 0x7f94bc5f26d8>, <m5.objects.L1Cache_Controller.L1Cache_Controller object at 0x7f94bc5fc6d8>, <m5.objects.L1Cache_Controller.L1Cache_Controller object at 0x7f94bc5846d8>, <m5.objects.L1Cache_Controller.L1Cache_Controller object at 0x7f94bc58d6d8>, <m5.objects.L1Cache_Controller.L1Cache_Controller object at 0x7f94bc5966d8>, <m5.objects.L1Cache_Controller.L1Cache_Controller object at 0x7f94bc5a06d8>, <m5.objects.L1Cache_Controller.L1Cache_Controller object at 0x7f94bc5a96d8>, <m5.objects.L1Cache_Controller.L1Cache_Controller object at 0x7f94bc5b26d8>, <m5.objects.L1Cache_Controller.L1Cache_Controller object at 0x7f94bc5bb6d8>, <m5.objects.L1Cache_Controller.L1Cache_Controller object at 0x7f94bc5456d8>, <m5.objects.L1Cache_Controller.L1Cache_Controller object at 0x7f94bc54e6d8>, <m5.objects.L1Cache_Controller.L1Cache_Controller object at 0x7f94bc5566d8>, <m5.objects.L1Cache_Controller.L1Cache_Controller object at 0x7f94bc55f6d8>, <m5.objects.L1Cache_Controller.L1Cache_Controller object at 0x7f94bc5686d8>, <m5.objects.L1Cache_Controller.L1Cache_Controller object at 0x7f94bc5716d8>, <m5.objects.L1Cache_Controller.L1Cache_Controller object at 0x7f94bc57b6d8>, <m5.objects.L1Cache_Controller.L1Cache_Controller object at 0x7f94bc5046d8>, <m5.objects.L1Cache_Controller.L1Cache_Controller object at 0x7f94bc50d6d8>, <m5.objects.L1Cache_Controller.L1Cache_Controller object at 0x7f94bc5166d8>, <m5.objects.L1Cache_Controller.L1Cache_Controller object at 0x7f94bc51f6d8>, <m5.objects.L1Cache_Controller.L1Cache_Controller object at 0x7f94bc5296d8>, <m5.objects.L1Cache_Controller.L1Cache_Controller object at 0x7f94bc5326d8>, <m5.objects.L1Cache_Controller.L1Cache_Controller object at 0x7f94bc53b6d8>, <m5.objects.L1Cache_Controller.L1Cache_Controller object at 0x7f94bc4c46d8>, <m5.objects.L1Cache_Controller.L1Cache_Controller object at 0x7f94bc4cd6d8>, <m5.objects.L1Cache_Controller.L1Cache_Controller object at 0x7f94bc4d66d8>, <m5.objects.L1Cache_Controller.L1Cache_Controller object at 0x7f94bc4df6d8>, <m5.objects.L1Cache_Controller.L1Cache_Controller object at 0x7f94bc4e86d8>, <m5.objects.L1Cache_Controller.L1Cache_Controller object at 0x7f94bc4f06d8>, <m5.objects.L1Cache_Controller.L1Cache_Controller object at 0x7f94bc4fa6d8>, <m5.objects.L1Cache_Controller.L1Cache_Controller object at 0x7f94bc5026d8>, <m5.objects.L1Cache_Controller.L1Cache_Controller object at 0x7f94bc48c6d8>, <m5.objects.L1Cache_Controller.L1Cache_Controller object at 0x7f94bc4946d8>]
l2_caches(64)=[<m5.objects.L2Cache_Controller.L2Cache_Controller object at 0x7f94bc49f3c8>, <m5.objects.L2Cache_Controller.L2Cache_Controller object at 0x7f94bc49fe10>, <m5.objects.L2Cache_Controller.L2Cache_Controller object at 0x7f94bc4a8898>, <m5.objects.L2Cache_Controller.L2Cache_Controller object at 0x7f94bc4b0320>, <m5.objects.L2Cache_Controller.L2Cache_Controller object at 0x7f94bc4b0d68>, <m5.objects.L2Cache_Controller.L2Cache_Controller object at 0x7f94bc4b97f0>, <m5.objects.L2Cache_Controller.L2Cache_Controller object at 0x7f94bc4c2278>, <m5.objects.L2Cache_Controller.L2Cache_Controller object at 0x7f94bc4c2cc0>, <m5.objects.L2Cache_Controller.L2Cache_Controller object at 0x7f94bc44b748>, <m5.objects.L2Cache_Controller.L2Cache_Controller object at 0x7f94bc4541d0>, <m5.objects.L2Cache_Controller.L2Cache_Controller object at 0x7f94bc454c18>, <m5.objects.L2Cache_Controller.L2Cache_Controller object at 0x7f94bc45c6a0>, <m5.objects.L2Cache_Controller.L2Cache_Controller object at 0x7f94bc465128>, <m5.objects.L2Cache_Controller.L2Cache_Controller object at 0x7f94bc465b70>, <m5.objects.L2Cache_Controller.L2Cache_Controller object at 0x7f94bc46e5f8>, <m5.objects.L2Cache_Controller.L2Cache_Controller object at 0x7f94bc478080>, <m5.objects.L2Cache_Controller.L2Cache_Controller object at 0x7f94bc478ac8>, <m5.objects.L2Cache_Controller.L2Cache_Controller object at 0x7f94bc481550>, <m5.objects.L2Cache_Controller.L2Cache_Controller object at 0x7f94bc481f98>, <m5.objects.L2Cache_Controller.L2Cache_Controller object at 0x7f94bc40aa20>, <m5.objects.L2Cache_Controller.L2Cache_Controller object at 0x7f94bc4124a8>, <m5.objects.L2Cache_Controller.L2Cache_Controller object at 0x7f94bc412ef0>, <m5.objects.L2Cache_Controller.L2Cache_Controller object at 0x7f94bc41b978>, <m5.objects.L2Cache_Controller.L2Cache_Controller object at 0x7f94bc425400>, <m5.objects.L2Cache_Controller.L2Cache_Controller object at 0x7f94bc425e48>, <m5.objects.L2Cache_Controller.L2Cache_Controller object at 0x7f94bc42e8d0>, <m5.objects.L2Cache_Controller.L2Cache_Controller object at 0x7f94bc436358>, <m5.objects.L2Cache_Controller.L2Cache_Controller object at 0x7f94bc436da0>, <m5.objects.L2Cache_Controller.L2Cache_Controller object at 0x7f94bc440828>, <m5.objects.L2Cache_Controller.L2Cache_Controller object at 0x7f94bc3c92b0>, <m5.objects.L2Cache_Controller.L2Cache_Controller object at 0x7f94bc3c9cf8>, <m5.objects.L2Cache_Controller.L2Cache_Controller object at 0x7f94bc3d2780>, <m5.objects.L2Cache_Controller.L2Cache_Controller object at 0x7f94bc3db208>, <m5.objects.L2Cache_Controller.L2Cache_Controller object at 0x7f94bc3dbc50>, <m5.objects.L2Cache_Controller.L2Cache_Controller object at 0x7f94bc3e46d8>, <m5.objects.L2Cache_Controller.L2Cache_Controller object at 0x7f94bc3ed160>, <m5.objects.L2Cache_Controller.L2Cache_Controller object at 0x7f94bc3edba8>, <m5.objects.L2Cache_Controller.L2Cache_Controller object at 0x7f94bc3f5630>, <m5.objects.L2Cache_Controller.L2Cache_Controller object at 0x7f94bc3fe0b8>, <m5.objects.L2Cache_Controller.L2Cache_Controller object at 0x7f94bc3feb00>, <m5.objects.L2Cache_Controller.L2Cache_Controller object at 0x7f94bc388588>, <m5.objects.L2Cache_Controller.L2Cache_Controller object at 0x7f94bc388fd0>, <m5.objects.L2Cache_Controller.L2Cache_Controller object at 0x7f94bc392a58>, <m5.objects.L2Cache_Controller.L2Cache_Controller object at 0x7f94bc39b4e0>, <m5.objects.L2Cache_Controller.L2Cache_Controller object at 0x7f94bc39bf28>, <m5.objects.L2Cache_Controller.L2Cache_Controller object at 0x7f94bc3a39b0>, <m5.objects.L2Cache_Controller.L2Cache_Controller object at 0x7f94bc3ac438>, <m5.objects.L2Cache_Controller.L2Cache_Controller object at 0x7f94bc3ace80>, <m5.objects.L2Cache_Controller.L2Cache_Controller object at 0x7f94bc3b5908>, <m5.objects.L2Cache_Controller.L2Cache_Controller object at 0x7f94bc3be390>, <m5.objects.L2Cache_Controller.L2Cache_Controller object at 0x7f94bc3bedd8>, <m5.objects.L2Cache_Controller.L2Cache_Controller object at 0x7f94bc347860>, <m5.objects.L2Cache_Controller.L2Cache_Controller object at 0x7f94bc34f2e8>, <m5.objects.L2Cache_Controller.L2Cache_Controller object at 0x7f94bc34fd30>, <m5.objects.L2Cache_Controller.L2Cache_Controller object at 0x7f94bc3597b8>, <m5.objects.L2Cache_Controller.L2Cache_Controller object at 0x7f94bc362240>, <m5.objects.L2Cache_Controller.L2Cache_Controller object at 0x7f94bc362c88>, <m5.objects.L2Cache_Controller.L2Cache_Controller object at 0x7f94bc36a710>, <m5.objects.L2Cache_Controller.L2Cache_Controller object at 0x7f94bd4210b8>, <m5.objects.L2Cache_Controller.L2Cache_Controller object at 0x7f94bd421b70>, <m5.objects.L2Cache_Controller.L2Cache_Controller object at 0x7f94bc37a5f8>, <m5.objects.L2Cache_Controller.L2Cache_Controller object at 0x7f94bc304080>, <m5.objects.L2Cache_Controller.L2Cache_Controller object at 0x7f94bc304ac8>, <m5.objects.L2Cache_Controller.L2Cache_Controller object at 0x7f94bc30d550>]
dirs(16)=[<m5.objects.Directory_Controller.Directory_Controller object at 0x7f94bc30de80>, <m5.objects.Directory_Controller.Directory_Controller object at 0x7f94bc3140f0>, <m5.objects.Directory_Controller.Directory_Controller object at 0x7f94bc314320>, <m5.objects.Directory_Controller.Directory_Controller object at 0x7f94bc314550>, <m5.objects.Directory_Controller.Directory_Controller object at 0x7f94bc314780>, <m5.objects.Directory_Controller.Directory_Controller object at 0x7f94bc3149b0>, <m5.objects.Directory_Controller.Directory_Controller object at 0x7f94bc314be0>, <m5.objects.Directory_Controller.Directory_Controller object at 0x7f94bc314e10>, <m5.objects.Directory_Controller.Directory_Controller object at 0x7f94bc321080>, <m5.objects.Directory_Controller.Directory_Controller object at 0x7f94bc3212b0>, <m5.objects.Directory_Controller.Directory_Controller object at 0x7f94bc3214e0>, <m5.objects.Directory_Controller.Directory_Controller object at 0x7f94bc321710>, <m5.objects.Directory_Controller.Directory_Controller object at 0x7f94bc321940>, <m5.objects.Directory_Controller.Directory_Controller object at 0x7f94bc321b70>, <m5.objects.Directory_Controller.Directory_Controller object at 0x7f94bc321da0>, <m5.objects.Directory_Controller.Directory_Controller object at 0x7f94bc321fd0>]
dmas(2)=[<m5.objects.DMA_Controller.DMA_Controller object at 0x7f94bc2d3ef0>, <m5.objects.DMA_Controller.DMA_Controller object at 0x7f94bc2dc550>]
others(0)=[]
ingesting configs/topologies/nr_list/cmesh_x_noci_naive.nrl
ingesting configs/topologies/vn_maps/cmesh_x_noci_naive_hops.vn
warn: Physical memory size specified is 32GB which is greater than 3GB.  Twice the number of memory controllers would be created.
