FileNotFoundError: [Errno 2] No such file or directory: 'configs/topologies/vn_maps/cmesh_x_noci_naive_hops.vn'

At:
  /home/yara/mithuna2/green456/netsmith_autotop/auto_top_gem5/configs/topologies/FS_NoCI_EscapeVirtualNetworks.py(472): ingest_flat_map
  /home/yara/mithuna2/green456/netsmith_autotop/auto_top_gem5/configs/topologies/FS_NoCI_EscapeVirtualNetworks.py(108): makeTopology
  /home/yara/mithuna2/green456/netsmith_autotop/auto_top_gem5/configs/ruby/Ruby.py(220): create_system
  configs/auto_top/auto_top_fs.py(173): build_test_system
  configs/auto_top/auto_top_fs.py(443): <module>
  build/X86/python/m5/main.py(434): main
gem5 Simulator System.  https://www.gem5.org
gem5 is copyrighted software; use the --copyright option for details.

gem5 version 22.0.0.2
gem5 compiled Mar 20 2023 15:13:00
gem5 started Mar 20 2023 15:53:27
gem5 executing on mnemosyne21.ecn.purdue.edu, pid 6273
command line: ./build/X86/gem5.fast -d ./parsec_results/parsec_noci_largemem_18GHz_500kB/100m/streamcluster/cmesh_x_noci/ configs/auto_top/auto_top_fs.py -I 100000000 --benchmark_parsec streamcluster -r 1 --checkpoint-dir ./parsec_checkpoints/largemem/streamcluster --router_map_file configs/topologies/paper_solutions/cmesh_x_noci.map --flat_vn_map_file configs/topologies/vn_maps/cmesh_x_noci_naive_hops.vn --flat_nr_map_file configs/topologies/nr_list/cmesh_x_noci_naive.nrl --topology FS_NoCI_EscapeVirtualNetworks --noi_routers 20 --noc_clk 1.8GHz --sys-clock 1.8GHz --ruby-clock 1.8GHz --noi_clk 3.6GHz --num-cpus 64 --mem_or_coh mem --num-dirs 16 --num-l2caches 64 --l2_size 500kB --num_chiplets 4 --mem-size 32GB --caches --ruby --network garnet --kernel parsec_disk_image/vmlinux-4.4.186 --disk-image parsec_disk_image/x86-parsec --cpu-type X86O3CPU --restore-with-cpu X86O3CPU --routing-algorithm 2 --use_escape_vns --vcs-per-vnet 10 --evn_deadlock_partition 1 --evn_n_deadlock_free 1 --evn_min_n_deadlock_free 9

info: Standard input is not a terminal, disabling listeners.
l1_caches(64)=[<m5.objects.L1Cache_Controller.L1Cache_Controller object at 0x7f7ca5e595c0>, <m5.objects.L1Cache_Controller.L1Cache_Controller object at 0x7f7ca5e63630>, <m5.objects.L1Cache_Controller.L1Cache_Controller object at 0x7f7ca5e6b630>, <m5.objects.L1Cache_Controller.L1Cache_Controller object at 0x7f7ca5e76630>, <m5.objects.L1Cache_Controller.L1Cache_Controller object at 0x7f7ca5e7e630>, <m5.objects.L1Cache_Controller.L1Cache_Controller object at 0x7f7ca5e08630>, <m5.objects.L1Cache_Controller.L1Cache_Controller object at 0x7f7ca5e10630>, <m5.objects.L1Cache_Controller.L1Cache_Controller object at 0x7f7ca5e1b630>, <m5.objects.L1Cache_Controller.L1Cache_Controller object at 0x7f7ca5e23630>, <m5.objects.L1Cache_Controller.L1Cache_Controller object at 0x7f7ca5e2b630>, <m5.objects.L1Cache_Controller.L1Cache_Controller object at 0x7f7ca5e35630>, <m5.objects.L1Cache_Controller.L1Cache_Controller object at 0x7f7ca5e3d630>, <m5.objects.L1Cache_Controller.L1Cache_Controller object at 0x7f7ca5dc7630>, <m5.objects.L1Cache_Controller.L1Cache_Controller object at 0x7f7ca5dcf630>, <m5.objects.L1Cache_Controller.L1Cache_Controller object at 0x7f7ca5dd9630>, <m5.objects.L1Cache_Controller.L1Cache_Controller object at 0x7f7ca5de2630>, <m5.objects.L1Cache_Controller.L1Cache_Controller object at 0x7f7ca5dec630>, <m5.objects.L1Cache_Controller.L1Cache_Controller object at 0x7f7ca5df4630>, <m5.objects.L1Cache_Controller.L1Cache_Controller object at 0x7f7ca5dfd630>, <m5.objects.L1Cache_Controller.L1Cache_Controller object at 0x7f7ca5d86630>, <m5.objects.L1Cache_Controller.L1Cache_Controller object at 0x7f7ca5d8e630>, <m5.objects.L1Cache_Controller.L1Cache_Controller object at 0x7f7ca5d99630>, <m5.objects.L1Cache_Controller.L1Cache_Controller object at 0x7f7ca5da2630>, <m5.objects.L1Cache_Controller.L1Cache_Controller object at 0x7f7ca5dac630>, <m5.objects.L1Cache_Controller.L1Cache_Controller object at 0x7f7ca5db4630>, <m5.objects.L1Cache_Controller.L1Cache_Controller object at 0x7f7ca5dbe630>, <m5.objects.L1Cache_Controller.L1Cache_Controller object at 0x7f7ca5d46630>, <m5.objects.L1Cache_Controller.L1Cache_Controller object at 0x7f7ca5d50630>, <m5.objects.L1Cache_Controller.L1Cache_Controller object at 0x7f7ca5d59630>, <m5.objects.L1Cache_Controller.L1Cache_Controller object at 0x7f7ca5d62630>, <m5.objects.L1Cache_Controller.L1Cache_Controller object at 0x7f7ca5d6b630>, <m5.objects.L1Cache_Controller.L1Cache_Controller object at 0x7f7ca5d73630>, <m5.objects.L1Cache_Controller.L1Cache_Controller object at 0x7f7ca5d7d630>, <m5.objects.L1Cache_Controller.L1Cache_Controller object at 0x7f7ca5d05630>, <m5.objects.L1Cache_Controller.L1Cache_Controller object at 0x7f7ca5d0e630>, <m5.objects.L1Cache_Controller.L1Cache_Controller object at 0x7f7ca5d18630>, <m5.objects.L1Cache_Controller.L1Cache_Controller object at 0x7f7ca5d21630>, <m5.objects.L1Cache_Controller.L1Cache_Controller object at 0x7f7ca5d2a630>, <m5.objects.L1Cache_Controller.L1Cache_Controller object at 0x7f7ca5d33630>, <m5.objects.L1Cache_Controller.L1Cache_Controller object at 0x7f7ca5d3d630>, <m5.objects.L1Cache_Controller.L1Cache_Controller object at 0x7f7ca5cc6630>, <m5.objects.L1Cache_Controller.L1Cache_Controller object at 0x7f7ca5ccf630>, <m5.objects.L1Cache_Controller.L1Cache_Controller object at 0x7f7ca5cd7630>, <m5.objects.L1Cache_Controller.L1Cache_Controller object at 0x7f7ca5ce0630>, <m5.objects.L1Cache_Controller.L1Cache_Controller object at 0x7f7ca5ce9630>, <m5.objects.L1Cache_Controller.L1Cache_Controller object at 0x7f7ca5cf2630>, <m5.objects.L1Cache_Controller.L1Cache_Controller object at 0x7f7ca5cfb630>, <m5.objects.L1Cache_Controller.L1Cache_Controller object at 0x7f7ca5d04630>, <m5.objects.L1Cache_Controller.L1Cache_Controller object at 0x7f7ca5c8e630>, <m5.objects.L1Cache_Controller.L1Cache_Controller object at 0x7f7ca5c98630>, <m5.objects.L1Cache_Controller.L1Cache_Controller object at 0x7f7ca5ca1630>, <m5.objects.L1Cache_Controller.L1Cache_Controller object at 0x7f7ca5cab630>, <m5.objects.L1Cache_Controller.L1Cache_Controller object at 0x7f7ca5cb3630>, <m5.objects.L1Cache_Controller.L1Cache_Controller object at 0x7f7ca5cbc630>, <m5.objects.L1Cache_Controller.L1Cache_Controller object at 0x7f7ca5c45630>, <m5.objects.L1Cache_Controller.L1Cache_Controller object at 0x7f7ca5c4e630>, <m5.objects.L1Cache_Controller.L1Cache_Controller object at 0x7f7ca5c57630>, <m5.objects.L1Cache_Controller.L1Cache_Controller object at 0x7f7ca5c60630>, <m5.objects.L1Cache_Controller.L1Cache_Controller object at 0x7f7ca5c69630>, <m5.objects.L1Cache_Controller.L1Cache_Controller object at 0x7f7ca5c71630>, <m5.objects.L1Cache_Controller.L1Cache_Controller object at 0x7f7ca5c7b630>, <m5.objects.L1Cache_Controller.L1Cache_Controller object at 0x7f7ca5c83630>, <m5.objects.L1Cache_Controller.L1Cache_Controller object at 0x7f7ca5c0d630>, <m5.objects.L1Cache_Controller.L1Cache_Controller object at 0x7f7ca5c17630>]
l2_caches(64)=[<m5.objects.L2Cache_Controller.L2Cache_Controller object at 0x7f7ca5c20320>, <m5.objects.L2Cache_Controller.L2Cache_Controller object at 0x7f7ca5c20d68>, <m5.objects.L2Cache_Controller.L2Cache_Controller object at 0x7f7ca5c297f0>, <m5.objects.L2Cache_Controller.L2Cache_Controller object at 0x7f7ca5c32278>, <m5.objects.L2Cache_Controller.L2Cache_Controller object at 0x7f7ca5c32cc0>, <m5.objects.L2Cache_Controller.L2Cache_Controller object at 0x7f7ca5c3b748>, <m5.objects.L2Cache_Controller.L2Cache_Controller object at 0x7f7ca5c441d0>, <m5.objects.L2Cache_Controller.L2Cache_Controller object at 0x7f7ca5c44c18>, <m5.objects.L2Cache_Controller.L2Cache_Controller object at 0x7f7ca5bcc6a0>, <m5.objects.L2Cache_Controller.L2Cache_Controller object at 0x7f7ca5bd6128>, <m5.objects.L2Cache_Controller.L2Cache_Controller object at 0x7f7ca5bd6b70>, <m5.objects.L2Cache_Controller.L2Cache_Controller object at 0x7f7ca5bdf5f8>, <m5.objects.L2Cache_Controller.L2Cache_Controller object at 0x7f7ca5be7080>, <m5.objects.L2Cache_Controller.L2Cache_Controller object at 0x7f7ca5be7ac8>, <m5.objects.L2Cache_Controller.L2Cache_Controller object at 0x7f7ca5bef550>, <m5.objects.L2Cache_Controller.L2Cache_Controller object at 0x7f7ca5beff98>, <m5.objects.L2Cache_Controller.L2Cache_Controller object at 0x7f7ca5bfaa20>, <m5.objects.L2Cache_Controller.L2Cache_Controller object at 0x7f7ca5c024a8>, <m5.objects.L2Cache_Controller.L2Cache_Controller object at 0x7f7ca5c02ef0>, <m5.objects.L2Cache_Controller.L2Cache_Controller object at 0x7f7ca5b8a978>, <m5.objects.L2Cache_Controller.L2Cache_Controller object at 0x7f7ca5b93400>, <m5.objects.L2Cache_Controller.L2Cache_Controller object at 0x7f7ca5b93e48>, <m5.objects.L2Cache_Controller.L2Cache_Controller object at 0x7f7ca5b9e8d0>, <m5.objects.L2Cache_Controller.L2Cache_Controller object at 0x7f7ca5ba6358>, <m5.objects.L2Cache_Controller.L2Cache_Controller object at 0x7f7ca5ba6da0>, <m5.objects.L2Cache_Controller.L2Cache_Controller object at 0x7f7ca5bae828>, <m5.objects.L2Cache_Controller.L2Cache_Controller object at 0x7f7ca5bb82b0>, <m5.objects.L2Cache_Controller.L2Cache_Controller object at 0x7f7ca5bb8cf8>, <m5.objects.L2Cache_Controller.L2Cache_Controller object at 0x7f7ca5bc1780>, <m5.objects.L2Cache_Controller.L2Cache_Controller object at 0x7f7ca5b4a208>, <m5.objects.L2Cache_Controller.L2Cache_Controller object at 0x7f7ca5b4ac50>, <m5.objects.L2Cache_Controller.L2Cache_Controller object at 0x7f7ca5b526d8>, <m5.objects.L2Cache_Controller.L2Cache_Controller object at 0x7f7ca5b5c160>, <m5.objects.L2Cache_Controller.L2Cache_Controller object at 0x7f7ca5b5cba8>, <m5.objects.L2Cache_Controller.L2Cache_Controller object at 0x7f7ca5b65630>, <m5.objects.L2Cache_Controller.L2Cache_Controller object at 0x7f7ca5b6e0b8>, <m5.objects.L2Cache_Controller.L2Cache_Controller object at 0x7f7ca5b6eb00>, <m5.objects.L2Cache_Controller.L2Cache_Controller object at 0x7f7ca5b77588>, <m5.objects.L2Cache_Controller.L2Cache_Controller object at 0x7f7ca5b77fd0>, <m5.objects.L2Cache_Controller.L2Cache_Controller object at 0x7f7ca5b81a58>, <m5.objects.L2Cache_Controller.L2Cache_Controller object at 0x7f7ca5b094e0>, <m5.objects.L2Cache_Controller.L2Cache_Controller object at 0x7f7ca5b09f28>, <m5.objects.L2Cache_Controller.L2Cache_Controller object at 0x7f7ca5b139b0>, <m5.objects.L2Cache_Controller.L2Cache_Controller object at 0x7f7ca5b1c438>, <m5.objects.L2Cache_Controller.L2Cache_Controller object at 0x7f7ca5b1ce80>, <m5.objects.L2Cache_Controller.L2Cache_Controller object at 0x7f7ca5b25908>, <m5.objects.L2Cache_Controller.L2Cache_Controller object at 0x7f7ca5b2d390>, <m5.objects.L2Cache_Controller.L2Cache_Controller object at 0x7f7ca5b2ddd8>, <m5.objects.L2Cache_Controller.L2Cache_Controller object at 0x7f7ca5b37860>, <m5.objects.L2Cache_Controller.L2Cache_Controller object at 0x7f7ca5b3f2e8>, <m5.objects.L2Cache_Controller.L2Cache_Controller object at 0x7f7ca5b3fd30>, <m5.objects.L2Cache_Controller.L2Cache_Controller object at 0x7f7ca5ac77b8>, <m5.objects.L2Cache_Controller.L2Cache_Controller object at 0x7f7ca5ad1240>, <m5.objects.L2Cache_Controller.L2Cache_Controller object at 0x7f7ca5ad1c88>, <m5.objects.L2Cache_Controller.L2Cache_Controller object at 0x7f7ca5ada710>, <m5.objects.L2Cache_Controller.L2Cache_Controller object at 0x7f7ca5ae4198>, <m5.objects.L2Cache_Controller.L2Cache_Controller object at 0x7f7ca5ae4be0>, <m5.objects.L2Cache_Controller.L2Cache_Controller object at 0x7f7ca5aec668>, <m5.objects.L2Cache_Controller.L2Cache_Controller object at 0x7f7ca5aecfd0>, <m5.objects.L2Cache_Controller.L2Cache_Controller object at 0x7f7ca6ba3ac8>, <m5.objects.L2Cache_Controller.L2Cache_Controller object at 0x7f7ca5afb550>, <m5.objects.L2Cache_Controller.L2Cache_Controller object at 0x7f7ca5afbf98>, <m5.objects.L2Cache_Controller.L2Cache_Controller object at 0x7f7ca5a85a20>, <m5.objects.L2Cache_Controller.L2Cache_Controller object at 0x7f7ca5a8e4a8>]
dirs(16)=[<m5.objects.Directory_Controller.Directory_Controller object at 0x7f7ca5a8edd8>, <m5.objects.Directory_Controller.Directory_Controller object at 0x7f7ca5a96048>, <m5.objects.Directory_Controller.Directory_Controller object at 0x7f7ca5a96278>, <m5.objects.Directory_Controller.Directory_Controller object at 0x7f7ca5a964a8>, <m5.objects.Directory_Controller.Directory_Controller object at 0x7f7ca5a966d8>, <m5.objects.Directory_Controller.Directory_Controller object at 0x7f7ca5a96908>, <m5.objects.Directory_Controller.Directory_Controller object at 0x7f7ca5a96b38>, <m5.objects.Directory_Controller.Directory_Controller object at 0x7f7ca5a96d68>, <m5.objects.Directory_Controller.Directory_Controller object at 0x7f7ca5a96f98>, <m5.objects.Directory_Controller.Directory_Controller object at 0x7f7ca5aa2208>, <m5.objects.Directory_Controller.Directory_Controller object at 0x7f7ca5aa2438>, <m5.objects.Directory_Controller.Directory_Controller object at 0x7f7ca5aa2668>, <m5.objects.Directory_Controller.Directory_Controller object at 0x7f7ca5aa2898>, <m5.objects.Directory_Controller.Directory_Controller object at 0x7f7ca5aa2ac8>, <m5.objects.Directory_Controller.Directory_Controller object at 0x7f7ca5aa2cf8>, <m5.objects.Directory_Controller.Directory_Controller object at 0x7f7ca5aa2f28>]
dmas(2)=[<m5.objects.DMA_Controller.DMA_Controller object at 0x7f7ca5a54e48>, <m5.objects.DMA_Controller.DMA_Controller object at 0x7f7ca5a5e4a8>]
others(0)=[]
ingesting configs/topologies/nr_list/cmesh_x_noci_naive.nrl
ingesting configs/topologies/vn_maps/cmesh_x_noci_naive_hops.vn
warn: Physical memory size specified is 32GB which is greater than 3GB.  Twice the number of memory controllers would be created.
